77
Coordinates from ORCA-job CWMHSQPVYVHHDK-QJPJQTDYNZXKQF_0_1-IRC_IRC_B
  Br  0.06988368084664      3.08393064690047     -0.88263219006331
  C   -2.44058563024563     -1.04008236447701     -1.54162717713623
  C   -4.11656820663681     -2.15473213190979     -0.12147397965740
  C   3.40703917016872     -2.28040815805219     -0.79526718322901
  C   0.96948812924870     -1.98560206452250     -0.87028891001782
  C   -3.10453825625359     -2.52696435439863      0.74084288039009
  C   0.84972637655096     -3.38190359556743     -0.97655052798100
  C   -1.37979021750472     -1.45512334132206     -0.63910637540960
  C   3.25434304907120     -3.67029293021600     -0.89978741383999
  C   -2.15727968138429     -0.30681391911236     -2.71810794179953
  C   -3.80611043692866     -1.39061137297715     -1.27585335786867
  C   2.29461616271911     -1.41114137006736     -0.77178683180408
  C   -1.74695923409288     -2.18392885488505      0.52489532264556
  C   1.97256508951207     -4.22426902037118     -0.99077763523177
  C   -6.03694330774087      0.69518015544944      1.23449088991636
  C   -3.81822754545320      1.80564561337718     -0.12690440221014
  C   -3.75895759828912      1.39660700259146      1.21394541194530
  C   -3.15834694752271      0.09164762319790     -3.58775699436207
  C   -4.81544986398671     -0.96949182416767     -2.18262638251620
  C   -2.69776414851192      2.37325612462122     -0.73677533614586
  C   -2.56504450494209      1.56935776305976      1.94030110378191
  C   -1.54105558578938      2.52006177909470      0.00194372543230
  C   -1.45372782771936      2.14004728506095      1.33390657341087
  C   -0.79768667713061     -3.83102566068312      2.16034881954129
  C   -0.76927672337804     -2.55403855726815      1.56989820077811
  C   -4.50477148004719     -0.23891891747180     -3.31457718404491
  C   3.57398370656497      0.61908343254191     -0.79609325768708
  C   4.15167620948726      0.69506425370220     -2.08521902121373
  C   4.26770567326342      0.67232322525490      4.01424955855703
  C   4.66808677401810      0.73621963929468      2.67646903534703
  C   2.97652629001711      1.06476519509897      4.37729575020404
  C   3.78693445406500      1.18257941519642      1.67660224033092
  C   4.24920593646539      1.27839199736265      0.27235520321159
  C   0.10836404496736     -4.18590713137267      3.16336120316653
  C   5.31102593503691      1.42336588583942     -2.33656829477917
  C   0.19414252906303     -1.63844272001900      2.03175654887959
  C   2.09518578095708      1.51353703085757      3.38772953254549
  C   2.49699454318553      1.56189113498011      2.06048459295363
  C   5.42462248490883      2.00187599045474      0.00010351117370
  C   5.95739716843729      2.09167770256785     -1.28654630616712
  C   1.06908613757389     -3.26856826997043      3.59988234909690
  C   1.10196204937237     -1.99003226594119      3.02935450840961
  Cu  0.59976567021076      0.73206234576048     -0.82873869474440
  H   -1.11814004244360     -0.04874557628933     -2.92202956369880
  H   -6.71417171913544      0.24651592769987      1.96824011185177
  H   -5.15298491055166     -2.42284291853783      0.08509022851668
  H   4.40511443427802     -1.84847210150562     -0.71028630412933
  H   -0.14903279909158     -3.81240067305756     -1.05891714400962
  H   -3.35725927541290     -3.07244028535232      1.65185444695603
  H   4.13763806794055     -4.31214469453452     -0.90382203410712
  H   -6.43386981269707      1.67210094018332      0.92312128994087
  H   -1.52467988498560     -4.56451605690139      1.80977972557125
  H   -4.71134409620401      1.65221149429648     -0.72493634346510
  H   -2.72726712010086      2.65735784732077     -1.78597511987673
  H   -2.51460955787236      1.24422571986184      2.97797054110753
  H   1.83818152955398     -5.30401605321113     -1.07718213241606
  H   -2.90780692932089      0.65813680658144     -4.48572995935470
  H   3.64184915265780      0.17615900848635     -2.89857980431134
  H   -5.95378235063400      0.03213881060389      0.36396380377537
  H   -5.85190905698738     -1.23464169641040     -1.96624525846639
  H   -0.52561418710267      2.26874457780926      1.88380119445759
  H   4.96546625264471      0.31169379851995      4.77126072129762
  H   5.67487270323476      0.42404957802304      2.39615972892736
  H   -5.29474384991333      0.07491306590748     -3.99874256370728
  H   2.65732944397711      1.01700502672566      5.41901627730236
  H   0.07112420050759     -5.18726663354450      3.59513749216586
  H   0.23890514257447     -0.64482814849153      1.58728986761870
  H   5.70685154653092      1.48051335833109     -3.35238963899697
  H   1.08465064495715      1.82345426618970      3.65537029542252
  H   1.80778001748197      1.91295408199521      1.29828624351148
  H   5.92388618847717      2.51206155527318      0.82610637125779
  H   6.86041984425191      2.67519774012346     -1.46840333088821
  H   1.78570055474917     -3.54526943956549      4.37438290159512
  H   1.83895762298485     -1.25820970483241      3.36181853190827
  N   -0.09102251074470     -1.10299864829718     -0.94625889600532
  N   2.37785160114118     -0.05434367689892     -0.60666099584928
  O   -4.78515745724350      0.83962766862916      1.88830125643248
