77
Coordinates from ORCA-job CWMHSQPVYVHHDK-QJPJQTDYNZXKQF_0_1-COPT
  Br  0.42484793041045      3.10479199787651     -0.68415792854213
  C   -2.43229038500002     -1.12587832458686     -1.41118306746264
  C   -4.13908580478480     -2.15889855838709      0.02212524682573
  C   3.32104698213400     -2.27642883722377     -1.06143637057887
  C   0.90126179366350     -1.94042268405455     -0.84760477464228
  C   -3.14456167958263     -2.51983809181372      0.91076716442602
  C   0.72925140517866     -3.31528101847883     -1.09649463104667
  C   -1.41162067396746     -1.45492561704277     -0.44628766584508
  C   3.12177794878088     -3.64316841116468     -1.31439823600731
  C   -2.09963606583816     -0.49459177232790     -2.63427485990305
  C   -3.80385241904321     -1.46560265305041     -1.16760432769505
  C   2.24174582135041     -1.40500744401667     -0.82258759370163
  C   -1.78288519342584     -2.18718990529835      0.70334839998944
  C   1.82316512690127     -4.16274211415406     -1.33058310291715
  C   -6.00416742187494      1.01254701871891      0.90266050529494
  C   -3.53754247251698      1.73476899664679     -0.29199812784631
  C   -3.68068046988210      1.52036919181091      1.08821463716420
  C   -3.06971123207365     -0.16760393156248     -3.56426898832012
  C   -4.78304808630530     -1.10536767006124     -2.13243872775506
  C   -2.30007583844720      2.09534366408535     -0.82224293453087
  C   -2.56992835373600      1.70436016580168      1.93407332999341
  C   -1.20981189772753      2.23295298557736      0.02593589381909
  C   -1.34180871679591      2.08850231663551      1.40888691858338
  C   -0.79889264426762     -3.96341339201775      2.15865741522660
  C   -0.79014498029686     -2.63134601652684      1.70722910181268
  C   -4.42844145863335     -0.46319872332859     -3.30373346783102
  C   3.48806818590354      0.65363462004911     -0.75206278829488
  C   4.03094113260514      0.70842224628044     -2.05959767427782
  C   4.37203880617971      0.96603113224715      4.01917182181761
  C   4.71657313714938      1.10202214076818      2.67217933396438
  C   3.03118252856563      1.03345988812025      4.40941705180335
  C   3.73526820120332      1.30724542304229      1.68443336162449
  C   4.13063377701190      1.42531711091084      0.26587115730691
  C   0.13039932685100     -4.41419984997544      3.09993822945993
  C   5.11933492287439      1.51459339134623     -2.37459454979953
  C   0.17109646201613     -1.75809124420824      2.24486866447404
  C   2.05043895276971      1.24935311607177      3.43668500567216
  C   2.40142400970870      1.37715799004408      2.10049694990026
  C   5.23137534383973      2.23115338796042     -0.07677890706046
  C   5.72915423629843      2.29294368757276     -1.37819022302389
  C   1.09349219279842     -3.53836514744547      3.60964183638562
  C   1.10390338649734     -2.20590601115177      3.18008875099997
  Cu  0.58370397536795      0.76199000811284     -0.30004995410534
  H   -1.05198497855850     -0.25659801278429     -2.81549022054550
  H   -6.80237749972594      0.72684092064097      1.59502626612372
  H   -5.18112995835270     -2.41008706895616      0.22188562550986
  H   4.33432808479514     -1.87393357804904     -1.02760845004364
  H   -0.28414839441249     -3.71739718099687     -1.12232281709983
  H   -3.41111205553226     -3.05412617752785      1.82403219739444
  H   3.98230414469365     -4.29186408168953     -1.48788679459693
  H   -6.27090821587241      1.95872522186323      0.41067807830704
  H   -1.53021168987488     -4.65954016974003      1.74616341883447
  H   -4.37226271243371      1.59641045355584     -0.97364063725886
  H   -2.19012679601398      2.25055209305301     -1.89173723831172
  H   -2.68377622206415      1.55810088897847      3.00706907826214
  H   1.65147343578233     -5.22253323970666     -1.52781265110351
  H   -2.78919688049094      0.32172807775001     -4.49784183876186
  H   3.54994645682210      0.11088342949622     -2.83477968380550
  H   -5.87882265159094      0.22456951196674      0.14858744002888
  H   -5.82773559670555     -1.34927684822393     -1.93230282705697
  H   -0.50014063162834      2.27649340133934      2.07109249439421
  H   5.15265983379778      0.79752557876285      4.76218377899313
  H   5.76265120370246      1.02713719263270      2.37298667160274
  H   -5.19374013184371     -0.19442819154124     -4.03331466960363
  H   2.75349142605293      0.92076518971346      5.45805327045490
  H   0.10896972886836     -5.45532954855101      3.42521170556623
  H   0.19352593128115     -0.72075731799694      1.91441435574947
  H   5.48718880768762      1.55008761186901     -3.40184967746676
  H   1.00053657222018      1.31632490666390      3.72316008397539
  H   1.63039446407294      1.58734152483185      1.37034861680546
  H   5.70430807736254      2.82523903898638      0.70709802787719
  H   6.57500233360464      2.93897735838710     -1.61433965715794
  H   1.82774060473595     -3.88851938383800      4.33647477125271
  H   1.84092004915275     -1.50628226617460      3.57631684254812
  N   -0.12157707057014     -1.04098542451224     -0.69302291422539
  N   2.35850140393658     -0.08179309180589     -0.47934955000621
  O   -4.83257274179993      1.15842166272066      1.69099176992084
