
 OpenBabel10172322043D

  5  4  0  0  0  0  0  0  0  0999 V2000
    1.0654    0.0381   -0.0654 Fe  0  0  0  0  0  0  0  0  0  0  0  0
    0.3048   -2.0930   -0.3588 Cl  0  0  0  0  0  0  0  0  0  0  0  0
    0.3048    0.8495    1.9269 Cl  0  0  0  0  0  0  0  0  0  0  0  0
    0.3048    1.3577   -1.7643 Cl  0  0  0  0  0  0  0  0  0  0  0  0
    3.3471    0.0381   -0.0654 Cl  0  0  0  0  0  0  0  0  0  0  0  0
  1  2  1  0  0  0  0
  1  3  1  0  0  0  0
  1  4  1  0  0  0  0
  1  5  1  0  0  0  0
M  CHG  1   1  -1
M  END
