60

C       -0.4688486980     -1.4735197739      1.8721765654                 
C        0.5124000912     -1.2435040782      0.6934140873                 
C       -0.1670987725     -0.2244717808     -0.2463079137                 
C        1.7883639613     -0.6251144839      1.3014754874                 
C        0.8403691754     -2.5373488086     -0.0760984371                 
C        0.3002857193     -3.7450586051      0.1886152784                 
C        0.5584150962     -4.9406817161     -0.6145395067                 
C        1.6706224412     -4.8953265114     -1.5524326472                 
C        2.2650461364     -3.7359775351     -1.8503271791                 
C        1.8334179224     -2.4679006193     -1.2110860395                 
O        2.3202143197     -1.4163372174     -1.6117906562                 
C       -0.1590989870     -6.1981631178     -0.3895706709                 
C       -1.5223594618     -6.4202073402      0.1039775897                 
C       -2.5601239695     -5.4069304772     -0.0198779804                 
C       -3.7737608664     -5.5253902568      0.5492463182                 
C       -4.0700039089     -6.8203123698      1.2720788046                 
O       -5.0714538771     -6.9251360546      1.9730852368                 
C       -3.1357420877     -7.9975097538      1.0919680569                 
C       -1.9368896407     -7.7489002662      0.5314481980                 
C       -3.6113022917     -9.3905561226      1.5550027554                 
C       -4.9400456783     -9.7671286123      0.8633726047                 
C       -2.6062867882    -10.5184773103      1.2023244143                 
C       -3.7890577719     -9.4274527258      3.0871330398                 
C       -4.8624947594     -4.4330170041      0.5107722789                 
C       -4.4458349472     -3.1933035296     -0.3243167202                 
C       -6.1567487948     -4.9754201390     -0.1305621832                 
C       -5.1589253168     -3.9128877129      1.9341843611                 
H       -0.6796406958     -0.5353891890      2.3999719903                 
H       -0.0554210423     -2.1709210907      2.6100817457                 
H       -1.4320153190     -1.8670117675      1.5264366718                 
H       -0.4845905438      0.6690199216      0.3043177995                 
H        0.4968050747      0.1189883404     -1.0450885146                 
H       -1.0585893377     -0.6557861976     -0.7172765767                 
H        2.3116812943     -1.3473847740      1.9387274101                 
H        2.4935679607     -0.2799269696      0.5398325337                 
H        1.5462888860      0.2474819261      1.9199859085                 
H       -0.3908033656     -3.8778402266      1.0144076838                 
H        1.9932286740     -5.8135726964     -2.0327972461                 
H        0.3931690681     -7.0984290697     -0.6555048567                 
H       -2.2925586039     -4.5218604181     -0.5861597641                 
H       -1.2117217014     -8.5410815919      0.3787879031                 
H       -4.8468566053     -9.7092728457     -0.2275615492                 
H       -5.2391713113    -10.7915982208      1.1153994325                 
H       -5.7694559040     -9.1188483534      1.1610451844                 
H       -1.6428379835    -10.3736597142      1.7048995771                 
H       -2.9847214606    -11.4985838264      1.5176004220                 
H       -2.4280695471    -10.5760416596      0.1220432504                 
H       -2.8703856069     -9.1167821610      3.5983318198                 
H       -4.5986085854     -8.7793364616      3.4344459643                 
H       -4.0316624636    -10.4403011080      3.4304791217                 
H       -4.2369334760     -3.4605570397     -1.3667347900                 
H       -5.2436136594     -2.4406867224     -0.3401823195                 
H       -3.5569541123     -2.7051058598      0.0925938129                 
H       -6.6189190625     -5.7710085884      0.4612580997                 
H       -6.9080543903     -4.1829786606     -0.2309807887                 
H       -5.9621876768     -5.3754359732     -1.1325571418                 
H       -5.6240145331     -4.6690367199      2.5728973067                 
H       -4.2408507781     -3.5760712465      2.4301748043                 
H       -5.8501312039     -3.0619949545      1.9067793139                 
H        3.0720576772     -3.6632315353     -2.5686469295 
