18

C       -5.7083521536     -0.6266785876     -0.1825544680                 
C       -6.5598120706     -1.8069040709      0.2776430594                 
C       -4.2496550938     -0.7876607361      0.2369602287                 
H       -6.1114085240      0.3034752125      0.2335390979                 
H       -5.7658841660     -0.5398749297     -1.2745994133                 
C       -3.6710738104     -2.1179645354     -0.2376406574                 
H       -4.1761715523     -0.7276396985      1.3298479186                 
H       -3.6556423954      0.0388293452     -0.1690434512                 
C       -4.5225890468     -3.2982007892      0.2224389469                 
H       -2.6486566618     -2.2313008994      0.1399761805                 
H       -3.6093683982     -2.1183382533     -1.3329021774                 
C       -5.9812705103     -3.1371667873     -0.1971066317                 
H       -6.6213370545     -1.8065649423      1.3729157556                 
H       -7.5822880208     -1.6935613566     -0.0998085364                 
H       -6.0547275844     -3.1970548634     -1.2900040790                 
H       -6.5753076490     -3.9636921029      0.2087869904                 
H       -4.4650986645     -3.3850881171      1.3144790976                 
H       -4.1195380663     -4.2283335900     -0.1937079926                 
