16

C                     0.46299356          -2.33309413          -0.47408945         
C                    -0.47316502          -2.33118899           0.47349564         
H                     1.51985286          -2.31997602          -0.19936788         
H                     0.18586622          -2.32351933          -1.51979597         
H                    -0.19371661          -2.30532314           1.51931471         
H                    -1.52245837          -2.31633394           0.20100428         
C                    -1.52054921           0.76336083          -0.22527284         
C                    -0.73475368           1.80695649           0.08601116         
C                     0.73545544           1.81367618          -0.08042802         
C                     1.52153723           0.77078444           0.21651721         
H                    -2.58178150           0.82585108          -0.09989937         
H                    -1.09735928          -0.13903922          -0.64196051         
H                    -1.21282367           2.72423891           0.41051780         
H                     1.21178097           2.72830419          -0.40346070         
H                     2.59368090           0.83448113           0.09758205         
H                     1.10540899          -0.14151881           0.63974320         
16

C                     0.68445532          -1.19846903          -0.33545719         
C                    -0.68467858          -1.19831104           0.33553274         
H                     1.22768323          -2.11442592          -0.09431416         
H                     0.55208669          -1.15978158          -1.41886852         
H                    -0.55231160          -1.15946529           1.41896366         
H                    -1.22804786          -2.11424625           0.09451048         
C                    -1.48359160           0.01941624          -0.12147006         
C                    -0.65872911           1.26810544          -0.05491485         
C                     0.65894569           1.26800779           0.05496744         
C                     1.48360114           0.01917182           0.12135005         
H                    -2.37787482           0.13852128           0.49600800         
H                    -1.82394929          -0.12472818          -1.15294656         
H                    -1.20433841           2.20044516          -0.11235845         
H                     1.20473690           2.20021409           0.11249013         
H                     2.37775638           0.13816290          -0.49632801         
H                     1.82422473          -0.12495775           1.15274661         
