16

  C  0.66430502 -1.45091077 -0.47733164
  C -0.67120820 -1.45540280 -0.45343989
  H  1.24379178 -1.94674554  0.28317315
  H  1.20733168 -1.11401565 -1.34373945
  H -1.21977839 -1.95500753  0.32726028
  H -1.24713230 -1.12226272 -1.29982465
  C -1.44023954  0.55208131  0.61734085
  C -0.72086466  1.41084225 -0.12537376
  C  0.70649650  1.41559132 -0.15087195
  C  1.45763015  0.56170889  0.56556332
  H -1.02439507  0.05582796  1.47539029
  H -2.51140375  0.49462439  0.51670806
  H -1.22070703  2.00744909 -0.87742247
  H  1.17517834  2.01542161 -0.92022327
  H  2.52487543  0.51136510  0.42673025
  H  1.07600608  0.06280938  1.43786444