17
q 0
C                    -0.61819340           1.46648796          -0.00069913         
C                    -2.14077949           1.57561405          -0.08129353         
C                     0.03580109           2.84808579           0.00924409         
C                    -2.80491985           0.21056894           0.00083393         
C                     1.55283473           2.74930314           0.01164806         
H                    -0.24804384           0.88693801          -0.85552536         
H                    -0.33267876           0.92085142           0.90674725         
H                    -2.51541953           2.20590679           0.73369488         
H                    -2.42662653           2.05902871          -1.02270677         
H                    -0.28946462           3.40329253           0.89715018         
H                    -0.28528313           3.42187426          -0.86753837         
H                    -2.58483183          -0.27419066           0.95730988         
H                    -2.45962716          -0.44504699          -0.80488810         
H                    -3.89131991           0.31246650          -0.08516755         
H                     1.90997556           2.18511113           0.87885726         
H                     1.99712638           3.74890638           0.04945856         
H                     1.91343803           2.25228083          -0.89475182         
17
q 0
C                    -0.04569708           1.58991692           2.46025331         
C                    -1.48569258           1.96062366          -1.37484385         
C                    -0.25172234           2.88215890           2.22011444         
C                    -1.97658779           0.59388741          -0.90717947         
C                     0.02163518           1.95743367          -1.61272206         
H                     0.39359661           0.95358120           1.69911986         
H                    -0.31536788           1.16238716           3.42043070         
H                    -1.73473099           2.72133968          -0.60412985         
H                    -2.00289697           2.23065722          -2.32060962         
H                    -0.69059183           3.51660853           2.98326638         
H                     0.01768240           3.31174498           1.26078964         
H                    -1.48754024           0.31359690           0.04942237         
H                    -1.75159546          -0.17951255          -1.67210030         
H                    -3.07482337           0.62824406          -0.74735884         
H                     0.56226053           1.70351575          -0.67730691         
H                     0.34708932           2.96458650          -1.94809289         
H                     0.28698247           1.21683002          -2.39675291         
