17
q 0
C                    -0.61819340           1.46648796          -0.00069913         
C                    -2.14077949           1.57561405          -0.08129353         
C                     0.03580109           2.84808579           0.00924409         
C                    -2.80491985           0.21056894           0.00083393         
C                     1.55283473           2.74930314           0.01164806         
H                    -0.24804384           0.88693801          -0.85552536         
H                    -0.33267876           0.92085142           0.90674725         
H                    -2.51541953           2.20590679           0.73369488         
H                    -2.42662653           2.05902871          -1.02270677         
H                    -0.28946462           3.40329253           0.89715018         
H                    -0.28528313           3.42187426          -0.86753837         
H                    -2.58483183          -0.27419066           0.95730988         
H                    -2.45962716          -0.44504699          -0.80488810         
H                    -3.89131991           0.31246650          -0.08516755         
H                     1.90997556           2.18511113           0.87885726         
H                     1.99712638           3.74890638           0.04945856         
H                     1.91343803           2.25228083          -0.89475182         
17
q 0
C                    -1.14112047           2.70260784           0.88858050         
C                    -2.08225518           2.74215657          -0.05967118         
C                     0.24951058           3.23001017           0.65886142         
C                    -1.87850406          -0.72509261          -0.41103086         
C                     0.98052776           2.45344939          -0.43478032         
H                    -0.96260884          -1.32300362          -0.22771704         
H                    -1.38999215           2.28608472           1.86032871         
H                    -1.87479191           3.15754674          -1.04067832         
H                    -3.07490423           2.35464767           0.14573396         
H                     0.19726074           4.30605279           0.38597272         
H                     0.82818263           3.13445915           1.60256810         
H                    -2.19057869          -0.23084947           0.53177700         
H                    -1.66815822           0.04358614          -1.18278142         
H                    -2.69271246          -1.39005497          -0.76493356         
H                     1.05683616           1.38037280          -0.15703886         
H                     2.00526898           2.86352760          -0.55697710         
H                     0.44993936           2.54179909          -1.40591376         
