13
q -1
Fe                   -4.73967756          -0.32255583           0.25052803         
C                    -5.64520805          -2.78005050          -0.10897126         
C                    -4.14695384           2.23463081           0.60370634         
O                    -4.35600652           1.13153808           1.43200545         
O                    -5.11931177          -1.77917702          -0.92739444         
Cl                   -6.91877436           0.36046820           0.10676652         
Cl                   -2.56530980          -1.00976785           0.39426247         
H                    -5.33817319          -2.59843487           0.94143955         
H                    -5.24411101          -3.76450713          -0.42527563         
H                    -6.75229983          -2.77632506          -0.17944308         
H                    -3.44656492           2.93801211           1.09884632         
H                    -5.11247674           2.74491743           0.40875516         
H                    -3.69139874           1.90253468          -0.35175460         
13
q -1
Fe                   -3.78968561          -0.20462297          -0.83314027         
C                    -5.73401269          -1.80257151          -0.25691491         
C                    -4.01084851           1.24984819           1.28187484         
O                    -3.22433178           0.17024449           0.88353917         
O                    -4.49926781          -1.90812046          -0.89611522         
Cl                   -6.69520329          -0.51555977          -1.02021673         
Cl                   -2.06681087          -0.06778894          -2.22426681         
H                    -8.55885211          -0.91845877           1.68040114         
H                    -5.58048373          -1.58277151           0.81938373         
H                    -6.27895767          -2.76370039          -0.35550027         
H                    -3.49498601           1.79773140           2.09683069         
H                    -4.99475763           0.88420763           1.64081584         
H                    -4.14800228           1.94296261           0.42650879         
