13
q -1
Fe                   -4.73967756          -0.32255583           0.25052803         
C                    -5.64520805          -2.78005050          -0.10897126         
C                    -4.14695384           2.23463081           0.60370634         
O                    -4.35600652           1.13153808           1.43200545         
O                    -5.11931177          -1.77917702          -0.92739444         
Cl                   -6.91877436           0.36046820           0.10676652         
Cl                   -2.56530980          -1.00976785           0.39426247         
H                    -5.33817319          -2.59843487           0.94143955         
H                    -5.24411101          -3.76450713          -0.42527563         
H                    -6.75229983          -2.77632506          -0.17944308         
H                    -3.44656492           2.93801211           1.09884632         
H                    -5.11247674           2.74491743           0.40875516         
H                    -3.69139874           1.90253468          -0.35175460         
13
q -1
Fe                   -3.34436804          -0.57077490           0.32662386         
C                    -5.81007544          -1.42597654           0.01208535         
C                    -4.55249830           1.63339250           1.12941722         
O                    -3.83341074           0.58013406           1.70085030         
O                    -4.52585261          -1.97202434           0.03900297         
Cl                   -6.01882946          -0.42293999          -1.44129692         
Cl                   -2.58529613           0.36953496          -1.54608194         
H                    -5.63532183          -4.57786699          -0.82454164         
H                    -5.99626849          -0.84338013           0.93478366         
H                    -6.55021633          -2.25128499          -0.02142232         
H                    -4.38575051           1.66863177           0.03780968         
H                    -5.63443093           1.50099331           1.33236643         
H                    -4.20418121           2.59256129           1.56370336         
