13
q -1
Fe      -4.7396775563     -0.3225558345      0.2505280294                 
O       -4.3560065186      1.1315380811      1.4320054503                 
Cl      -6.9187743594      0.3604681994      0.1067665222                 
O       -5.1193117737     -1.7791770225     -0.9273944439                 
Cl      -2.5653098046     -1.0097678547      0.3942624719                 
C       -5.6452080538     -2.7800505048     -0.1089712583                 
H       -5.3381731868     -2.5984348726      0.9414395454                 
H       -5.2441110127     -3.7645071276     -0.4252756322                 
H       -6.7522998261     -2.7763250581     -0.1794430767                 
C       -4.1469538436      2.2346308145      0.6037063397                 
H       -3.4465649161      2.9380121054      1.0988463243                 
H       -5.1124767426      2.7449174299      0.4087551568                 
H       -3.6913987395      1.9025346821     -0.3517546049                 
