15

C       -2.7553264507      2.3624792824     -0.1746648851                 
C       -3.8973382821      1.4162256271      0.1766183373                 
C       -3.3506816194      0.0195251499     -0.0942742603                 
H       -4.8861837329      1.6521816223     -0.2697235441                 
H       -4.0103014179      1.4829632360      1.2850672416                 
C       -1.5660397445      1.5356596604      0.1702174530                 
H       -2.8440858550      3.2996553383      0.4154122564                 
H       -2.7078524955      2.5857685061     -1.2622026444                 
C       -1.9055840623      0.1994167983      0.2160656125                 
H       -3.4332323205     -0.2688791803     -1.1642548400                 
H       -3.8659312540     -0.7216996420      0.5533921466                 
H       -0.5510632594      1.9004258669      0.2546355478                 
H       -1.1861517973     -0.5989067720      0.3403905711                 
H        2.9379190927     -0.6292233688      0.0554400041                 
H        3.3594109958     -0.0603512142      0.0536973431                 
