14

C 0.5323720713409776 0.5530922265188108 0.8963221522261122
C 2.5108061930436194 1.3363105830558348 0.1650263069120289
C -0.7860696933060269 -0.943023293425833 -0.6758133146267707
C -0.5784118397640614 -0.3858461118176774 0.6728212320286179
O 1.5700498895685833 0.32368637597143207 -0.011433329837390482
O -1.3220652088995526 -0.712110842522308 1.558451643053615
H 0.22127409625060876 1.6003759615884452 0.7826148168595883
H 0.8747885059772101 0.43717301169185346 1.948727797023713
H 3.3601649969770837 0.9989067324274321 0.7592008471097682
H 2.0393036029838973 2.206526151945408 0.6709336069652599
H 2.8421031351656865 1.6967261782982423 -0.8258488394210219
H -0.8651989556678367 -0.08444955349564211 -1.3842328802615063
H -1.7365209442972274 -1.521792763299212 -0.7374076952431023
H 0.03691057285193939 -1.629689559742434 -0.9683493716754911
14

C -1.2621971755625279 -1.1424723160762962 -0.027990780396460694
C 0.678317839952494 0.08174942603154828 0.2878366602653005
C -1.7026176773651804 -0.21952357100314082 -2.415056982830834
C -0.9037229261451264 -1.0692073267765279 -1.469956631363737
O -0.18678238666260966 -0.8733296491526732 0.8013034971523423
O 0.03852478685196411 -1.692852266422477 -1.9092014622017943
H -2.097270596576569 -0.4367358144940547 0.16499597838486937
H -1.6670571487544348 -2.1588615149550017 0.18110293823510806
H 0.7351380238993948 0.9828403903177307 0.9467683120917596
H 1.7269532162748054 -0.30633343551656306 0.24230479655409248
H 0.3926907207142305 0.37114380399271635 -0.7456709814098794
H -2.7420937052832874 -0.22544214512910762 -2.013911869077975
H -1.615581112960712 -0.6363483456435923 -3.4224266642127787
H -1.322965012448679 0.8280594297576931 -2.4303744993303056
14

C -1.536274629738153 -2.0388841127283417 1.4813076382574901
C -0.9302602631987985 -2.011348902771458 -0.7052092871280149
C -0.023588345255687312 -0.20128299904516259 2.3888613040769053
C -0.17773155596336052 -1.5657745128725742 1.82046708687605
O -1.8783190427196343 -1.5646794455446706 0.2227371249216968
O 0.7716285822734461 -2.2769120258928206 1.6363316893826796
H -2.2486283928565807 -1.612439939067614 2.213181023316768
H -1.6043368225274988 -3.1415954010006044 1.4432718924812677
H -0.08886924316448563 -1.2893274894419033 -0.7824844843722324
H -1.3977629838629908 -2.0660542558454758 -1.712373356045896
H -0.5698022626995501 -3.0320333385990152 -0.4645730990086012
H 0.20796782220710533 0.5007878753111036 1.5641786311374395
H 0.7784065791886217 -0.258818761012831 3.1468285305523227
H -0.9916929798505076 0.11990360626690869 2.861221107740184
14

C 1.2732333356131091 -0.9537141448738875 -1.3188245152033946
C 1.8420562757275607 0.24488336640535258 0.5829248384842353
C -1.1213671507250138 -0.722159698760809 -0.376981413846174
C 0.17033111911503623 -1.4440765678551244 -0.5076639626874248
O 2.1153972409943873 -0.06035807495987586 -0.7131872788729037
O 0.2838871428086037 -2.4889393634110304 0.1011910502031441
H 1.9194948802797016 -1.7855525637444454 -1.7274053760900416
H 0.8521114830472518 -0.46173533129148037 -2.2255522961787486
H 2.279102008596787 -0.461427452295483 1.3295327640036843
H 2.3032039225263965 1.2345234949515218 0.8160384456727671
H 0.7736049256627198 0.3394105925411105 0.8335468571162993
H -1.9509443661798276 -1.2445305323738756 -0.9144804080756753
H -1.4277778610953362 -0.7320612525299995 0.6990168655349847
H -1.069873516473057 0.29674900646659413 -0.7913294523637258
14

C 1.0433567458790052 1.2336896585010415 -0.20558811306563787
C 0.3691047621934181 -0.6705683626077461 0.9144547263792048
C 0.8113352811003509 1.3210876954252249 -2.8069350953993824
C 0.963823700209803 0.5807241930645474 -1.52946961756199
O 0.16272117361864571 0.6738754642069487 0.7018322951661133
O 1.0251419547430152 -0.642069225898609 -1.6012069943678013
H 0.7051389905284415 2.2986999716671144 -0.3514314861204595
H 2.0856600577354154 1.270721342659157 0.16028394390805775
H 1.3968199282413627 -1.0134561224125265 0.7201485053498211
H 0.08893623097372004 -0.8675753371194437 1.9910205118882072
H -0.3482834136780218 -1.222041642774141 0.26860180845225834
H 0.9817643423199297 2.406493819871137 -2.641321672267021
H -0.23099425802017132 1.153486562216989 -3.1611331491093533
H 1.55738353193633 0.9389469046401356 -3.5355771543633723
14

C 0.2634931345439132 1.8997492503334392 1.1020516047592201
C -1.3955936733097043 0.40828483396417714 1.2674222468181453
C 0.27028351488290625 1.0872241067277477 -1.3875102476753798
C 0.06503510613929091 2.1307653123124104 -0.3436677887831401
O -0.9599640909724153 1.6496053934772084 1.7351680161879766
O -0.28628491851164195 3.2291866523204344 -0.7272999327073139
H 0.70409517678071 2.8077189147112263 1.549040713436308
H 0.8914819538077602 0.9982488205665543 1.2229764912684062
H -1.8408507578577742 0.5531843627251354 0.2519771855920809
H -2.1101690539043734 -0.07457490183517664 1.9488134609293883
H -0.49865428983524895 -0.25312531324899384 1.2202442723514904
H 1.0526115438817054 1.435859395553546 -2.085527562613991
H -0.6692591958843175 0.8965287312948246 -1.9655754179873208
H 0.6461718013260658 0.13244100479122956 -0.9546934384355601
14

C -0.8262648689744866 0.43524682578236507 0.5109647028401191
C -0.8710573237693432 -0.18318446017099138 -1.7134921209114564
C -0.051443681905657804 -2.004042262597866 0.9183419707352403
C 0.020689283232816266 -0.5464021868521609 1.249514778707842
O -0.346022309146791 0.6570632076558514 -0.7660327170449054
O 0.7836326524999474 -0.19423952418034027 2.1300240710144465
H -0.7417142030003384 1.421222180930388 1.052223571272822
H -1.8915417017421012 0.13326380503901178 0.5197016394832847
H -0.13525058171268406 -0.9857246409306045 -1.9179117741714728
H -1.055159677797232 0.3479290988725163 -2.6917660073560303
H -1.8557771630032394 -0.599043852585673 -1.392684706105698
H -0.3592153526749479 -2.5439375646861904 1.8483789396300483
H 0.9767909917225933 -2.3371863070882357 0.7006646926547383
H -0.75708120103943 -2.1773242296839688 0.0845996130069223
14

C -0.003435334611979411 -0.6128614774272186 -0.3556407636519347
C 2.115955747974124 -1.0018022945921652 0.4697726257337283
C -0.6033652885232909 1.7205221575265175 -1.3115325692568922
C 0.2972092623327199 0.8260925663734308 -0.5518612942691564
O 0.7645490531393039 -1.1530143567147553 0.6445502461686485
O 1.3041521961531928 1.2923297207094309 -0.08205689175082649
H 0.18292152650894863 -1.1823648979009374 -1.3060937461305104
H -1.0774909671473454 -0.7456252046769909 -0.05454881626622642
H 2.387066547858458 -0.7254162586822606 -0.5791771331463514
H 2.5445435318077934 -0.2551088924637074 1.1575349736957528
H 2.6217158837273047 -1.961670632096116 0.687445603534614
H 0.03998345019851871 2.3413810154273076 -1.9946622067624882
H -1.3009644590004 1.1806126456928898 -1.9755409200552465
H -1.1302269085950958 2.410383306059615 -0.6246417101741535
14

C -0.5403316583040869 -0.7457451314456608 0.9220310158975689
C -0.1048256489027678 1.5268461940014295 1.029028603524779
C -0.610053529077526 -0.1113283100704134 3.4593238355840747
C -0.09538378768352844 -0.9082552591633068 2.315175720462288
O -0.9389162232787519 0.5290392505062851 0.5962260999931832
O 0.7528041194795766 -1.7523661582896395 2.552975721490852
H -1.4329563768462592 -1.4159472942788283 0.7805847271224434
H 0.24246317303179782 -1.10858879445674 0.22472520726199932
H -0.6807139534846437 2.153768265453324 1.765823190659937
H 0.8615748534527666 1.2050200955723034 1.4164456308099818
H 0.10823788644605035 2.2104463344318397 0.1574385440057474
H -0.561085290715049 -0.6933684794677204 4.419240179848444
H -0.009320943634902547 0.8057196526957291 3.6359502220860414
H -1.6878558681309128 0.1561113956321076 3.32742417926561
14

C -0.662510859056945 0.6092389716568478 0.4238753705781859
C -0.34517696204970866 -1.5076735997461062 -0.23267131832051766
C -0.23849076552471485 2.687135783891457 1.8717618726817042
C -0.6569954389448622 1.257012265465906 1.7658694566007398
O 0.2360971092077963 -0.44870018712193077 0.4746241846941845
O -0.989945267432292 0.6177667396906972 2.744246822519429
H -0.4025003053006446 1.3336875312918357 -0.3618281548420125
H -1.6944081377716373 0.23107022498032 0.2209116341353893
H 0.48704472189412745 -2.1607205974678036 -0.5605203877052893
H -0.8176293890958827 -1.086071224517524 -1.1528649080792173
H -1.0482429382664207 -2.0724006174691056 0.39630943759466286
H -0.8802180207036726 3.333597998191401 1.2330966134459416
H 0.8191522037200183 2.7756922446452394 1.5750959796260462
H -0.3082460064859397 3.0084200034215285 2.9222963263368515
14

C 1.5790163523028167 0.3477149370343422 -2.0294532796257547
C -0.6181121180918566 -0.09665611392394248 -2.597908198755581
C 1.5453841651947697 -0.8756801852135979 0.27253229052516587
C 2.0680834214659556 0.19321138585722641 -0.6268244640143702
O 0.6221622717423876 -0.6175613325001439 -2.2592058254794747
O 2.921187954720923 0.9706886832583991 -0.2150695836357525
H 1.2243386739305702 1.376405513095392 -2.1401380711987326
H 2.473717476729848 0.20438097624625176 -2.68578471254965
H -1.127461190475674 0.17091377211847494 -1.6455492417352258
H -1.2240446456521183 -0.9141255196162161 -3.049822134137531
H -0.515684665662901 0.7815672433582597 -3.257190192574042
H 0.8369097174836034 -1.500861095223514 -0.3217715668681412
H 1.0115323739723372 -0.40349846853418925 1.1026765032206092
H 2.3656991358638595 -1.547354794849688 0.5734732805091722
14

C 1.1230113080820567 0.4969569070809098 -0.8279085377586206
C 0.8126122133953304 -0.9982973589436359 0.9152760739367385
C -0.5426533505433166 2.4837281015840458 -0.7140651371149551
C -0.1941407773991564 1.1204336771800234 -1.1300639529601297
O 1.2693965539671912 0.2226247749661121 0.5155016839969722
O -1.002061817694696 0.4509132691270447 -1.7507696682613918
H 1.9370974803932552 1.2376877205292809 -1.086575005514674
H 1.3139231096672312 -0.36448524841190477 -1.4905063668262533
H 1.6449446646761252 -1.5994120165147276 1.3774663964515284
H 0.07803297385277075 -0.8412605062817775 1.7555424483795345
H 0.33105289666521104 -1.6077731737505399 0.15015759180122795
H -0.23060903803266983 3.262847811712686 -1.4622919119946434
H -0.0952724531967995 2.724824466213229 0.29116862355653605
H -1.6443308974292752 2.622041235070624 -0.5830691654679657
14

C 0.6817022895526058 -0.9761740088253221 -0.933910883945438
C -0.5073096165439533 -2.95291136765297 -1.0140093083202308
C 0.5388503488464056 0.5135578811093561 1.1245833908467813
C 1.1991034297561995 -0.6130744275021901 0.4011872191816285
O 0.757563018930425 -2.3582777267781516 -1.145887192131586
O 2.137628076316753 -1.2399812240675745 0.8605945756525459
H -0.4076594832208895 -0.7098524034380708 -0.9838869393122505
H 1.2313393784839957 -0.47874382494160356 -1.7538440046344275
H -0.8103684320995772 -2.981927558566952 0.03633690515437109
H -0.5086816373810134 -3.9318614041546875 -1.5173393403259259
H -1.2748719734054512 -2.329610341077384 -1.5476823079420738
H -0.4261703651097495 0.1360462432169606 1.4893778667725601
H 0.46331629539585667 1.3847323756387622 0.4683497883752109
H 1.194669714502637 0.7987613349880345 1.9736004469119182
14

C 0.2305714198315652 0.645138236370377 -2.2195226444086367
C 0.5730513981693448 -0.6227711401737517 -4.08816798225336
C 2.1644697228794443 -0.5101650268675657 -1.0311639920245357
C 0.8717526860565098 0.20723104734857228 -0.9707345627102247
O -0.19867055900439035 -0.44249911553845717 -2.9494181506658146
O 0.3816586513482588 0.4111965415728619 0.11178265799977527
H 0.9877263745733774 1.2296828316598212 -2.816325709354683
H -0.6092857762774381 1.3380153956305896 -1.9512268609193215
H 1.392184337383759 -1.3630718651585068 -3.919719550744189
H 1.0245486752311017 0.3386869972044319 -4.392959158955478
H -0.03765004418303219 -1.0667567589046099 -4.925457095635029
H 2.123608754221 -1.4443837196643918 -1.5935184485935778
H 2.9285939485145303 0.14033944325327272 -1.5468561373589875
H 2.5559573657641224 -0.7574818054539533 -0.01750733561733083
14

C -0.3801807003459518 0.742048193541728 0.7395246064379754
C -0.6431310251697545 -1.0923482801533948 -0.5221151941386462
C -1.2753795616223291 3.042836253972415 1.356391736073875
C -0.9481281209723753 1.648655280941497 1.7550708127216388
O -1.171377025436545 -0.3863649689267349 0.5505685225800867
O -1.1342819222830187 1.250197599524624 2.8729482694597683
H 0.6485799260098455 0.48048691728312903 1.0604230294172539
H -0.28481652651068223 1.235721643519622 -0.2542619923562878
H 0.23040225548907273 -0.5791099218583032 -0.9841756437026232
H -0.27120648834479116 -2.0501316812039456 -0.13234343969414197
H -1.3993937199359314 -1.2786685137390532 -1.313749569196383
H -2.3515124646978043 3.0731181250215713 1.1264448274169203
H -1.0866958738770716 3.7437872092654625 2.2069778008438736
H -0.6382057580851498 3.331690079950343 0.48031744382926683
14

C -1.0258338052055418 -1.6119377285490948 1.41990158710698
C -2.6752161547290196 -1.160045256768216 -0.12744070810562383
C -0.0036266145991066677 0.6173327908363428 0.6785819060814086
C -0.002231809802356908 -0.8629624637418376 0.6622392221250126
O -2.3063539171031797 -1.1139593376765544 1.1991965838633942
O 0.835144433129162 -1.4876236485089576 0.029622313233098187
H -1.00313740856925 -2.6905692584894045 1.2113191805347534
H -0.8200944778366492 -1.452150868781094 2.5170034675855213
H -1.9925128172028819 -0.5122050983502876 -0.745489754123434
H -2.6000488916288766 -2.214599004128808 -0.4841958413533735
H -3.7258015178803614 -0.8027660729413861 -0.19071828747273462
H 0.665989238438147 0.9887163973958141 1.4982967063391808
H 0.3388390161695323 1.0486023640831879 -0.3031584417461259
H -1.0369877828526863 1.018171251055683 0.8768882081543675
14

C -0.6685936313904072 0.0034789938852177443 0.198189208081869
C 0.3334611258846411 -1.9898528683511774 0.8048559760034666
C -2.827630153723307 -1.4124790894710564 0.030742134601945265
C -1.6469125574069925 -0.7622856291327417 -0.5895820553219397
O 0.5041490296633584 -0.6720933485935514 0.45530992255558395
O -1.483636620296581 -0.866862333581856 -1.7905365855103939
H -1.164318544618028 0.35628185713960087 1.1495071646298252
H -0.3731150306464501 0.9655545264051449 -0.31426689932880775
H -0.25760724457252693 -2.5616341226354438 0.07666040239496155
H 1.3604841629429594 -2.459980149145876 0.7917221860186597
H -0.019515689217796946 -2.1303309827558974 1.8532449791440482
H -3.630795206794121 -1.62200897294059 -0.7071991540305256
H -2.5998115437042575 -2.345031688427912 0.5532049119747198
H -3.2626488782253786 -0.6473720382833384 0.7385872023537964
14

C 1.7830018742713278 0.08407731481608659 0.5707615926500759
C 0.4634471037531814 -1.4342243175988292 1.5469574544504188
C -0.031758021989368446 0.12810702732181298 -1.2324395741452174
C 1.194561015915999 -0.5092630182843962 -0.6605309121645947
O 0.8331811899279937 -0.10067783076467123 1.5942679733722591
O 1.7093170445220016 -1.4972838744070744 -1.1871744907277924
H 2.7224773526899715 -0.4633464260094716 0.8294157296486458
H 2.01391762358041 1.1573978324956222 0.43235832673661356
H -0.13109787752769805 -1.7709142477376618 2.398394190995658
H -0.10789007308863864 -1.5773090726727614 0.6050902279197692
H 1.399371487665494 -2.037471917668772 1.4841189382609201
H 0.2520821344246311 0.9169094250563185 -1.9603264548483696
H -0.5922888464955245 0.596003835692659 -0.3986500896809602
H -0.6087590547033207 -0.6873746315563857 -1.7210142492341098
14

C -1.3629488445639517 0.6334201294969308 -0.078588432064314
C -2.370166114604216 -1.3509967631481732 -0.6864998673470712
C -0.41526512990168357 1.0739303099315338 2.2978428745209754
C -0.8514838525446582 0.13706000813254177 1.2252542428979998
O -2.5546558348338926 -0.007405905336403414 -0.3803789980692079
O -0.797957804766765 -1.0530581686258482 1.3947036280079002
H -1.5667036556026885 1.7117416099525515 -0.018753217909262244
H -0.6125602653216141 0.36000501487436476 -0.8499867629501702
H -2.6132053811726514 -2.006701623987828 0.17600173370591793
H -3.0698745950368904 -1.5620410759169852 -1.5463955685921063
H -1.3061085085772401 -1.496041296689133 -0.9902725253041393
H 0.6357679840835653 0.8407198997254458 2.6307615431442137
H -0.4734768162666197 2.118746215119074 1.9487410301999888
H -1.0809956823028737 1.0055918876282854 3.1976455032328244
14

C 1.7056368386745788 -2.2152307288046025 0.94316165366232
C -0.5892524688074298 -2.223225691231655 1.2093913708020867
C 0.9253892067630193 0.09302737376362291 0.022609659098419797
C 1.8624024895747553 -0.7588089443146259 0.8012758667919438
O 0.4867181270837994 -2.6910596975346834 0.5032749123700732
O 2.818407215781996 -0.24537485233486658 1.3603959015130076
H 1.935331061895021 -2.503458502869522 1.992871023211074
H 2.4916142310933944 -2.699568786315622 0.3171183024298506
H -1.2297238877581276 -3.052800282959058 1.6197356034074455
H -1.2673215829543232 -1.7047341134944254 0.46979143531417283
H -0.34889965232380976 -1.5768086682666123 2.063366224308323
H 0.02507678789010475 0.35156947244222175 0.6397463209977998
H 1.3946617544079982 1.0617697003239295 -0.2420140965292201
H 0.6443331836481285 -0.3801626871330435 -0.9451496504084074
14

C 2.457813160359726 -0.4541670024239111 -1.6960092789203407
C 0.7890840761207187 -0.6343051947705022 -0.17155663111743102
C 1.025095985458472 -0.3995970999851747 -3.8325368406331313
C 2.0749152736213694 0.18880020771111278 -2.9614346719612636
O 1.8174740477348332 0.17822025796363514 -0.6178128432141672
O 2.633774313475193 1.2196177003108444 -3.290737005860687
H 2.15520402742297 -1.5405664832672121 -1.732687456767116
H 3.5581764593167398 -0.41718862873939844 -1.5247516142232174
H 1.2183359440821844 -1.539295486947405 0.3023256050038729
H 0.23816988628571475 -0.07681962127559137 0.6186990796415966
H 0.14861399163653669 -0.8914564027203958 -1.03207210431797
H 0.20736357403410094 0.2967239227049669 -4.020496544242211
H 1.5290506889860462 -0.7551933833395915 -4.773906684957814
H 0.612505406875663 -1.3142372996813014 -3.3568890906978504
14

C 0.2628195257641141 -1.0953048215045278 -1.0054176960128858
C -0.45492279336220415 -2.598278920989209 0.5952916446598272
C -0.16221820627736339 1.1856871659928894 -2.0364099838165353
C -0.7170781798180517 0.0033917600515161535 -1.3329151998142736
O -0.46072526702418215 -2.2510885790364017 -0.753365430213745
O -1.881463568600137 -0.07004077708029907 -1.0427173580830607
H 0.9128008831098636 -0.782199390398458 -0.18197042986687012
H 0.8263908338294536 -1.2734124684875687 -1.9561977640826211
H -1.4708401402441933 -2.7806605966225795 0.9583837865364139
H 0.1228986969619819 -3.551939094605804 0.7110385216696795
H -0.0020336238370643914 -1.819326310973899 1.239688383060229
H -0.9560888636606945 1.852093444078784 -2.424168297128155
H 0.4163564533498858 0.8259230156362668 -2.914649046414507
H 0.5303852447140285 1.706702263203361 -1.3445408925099984
14

C -0.24722271930954504 -0.09762961700577237 -0.06892851882072853
C 1.9037404554085966 0.1348452880434307 -0.8957115619698087
C -0.6384024749425603 -1.6915871347010136 1.9059112974859482
C -0.8399828344448993 -1.3499176869102 0.4708993389816156
O 0.6339842041962462 -0.36574258003326404 -1.1312007784397793
O -1.4761756902106284 -2.095509215768239 -0.2117403318284195
H -1.0604637989173764 0.5952271477604726 -0.397262977403829
H 0.35382593213796765 0.41986477432890124 0.7070422997716741
H 1.9585074747824378 0.5877096768520292 0.13258270433298103
H 2.1369863580478947 0.9360115561229421 -1.6113955772919117
H 2.640012675845642 -0.6983282894085224 -0.9183984352897387
H 0.45178110659183535 -1.4878610204590363 2.1192444465993625
H -1.2188900107058696 -1.0224540096721115 2.5403688451195623
H -0.7875227871412622 -2.76614831892793 2.11596793660914
14

C -0.8325276933163908 0.6640466773131567 -0.7137249866364745
C -0.11426782201956596 -1.3168244063280483 -1.5713122718697796
C 0.7100823571332563 -0.09269783586491812 1.155988663263452
C -0.3117399617846273 0.8370188577362021 0.6541346635418792
O -1.2028108991276214 -0.6715864428555032 -0.9524079229407852
O -0.7115164385621551 1.7347670773841866 1.3759233243421598
H -0.06250917669645978 0.9542121011389032 -1.4284749045754723
H -1.709531168019323 1.329191263316496 -0.8588178292958591
H 0.7513886747986313 -0.6544383053078554 -1.6780119725990728
H -0.4764724092437956 -1.7549307060930237 -2.5211984090358213
H 0.16855623451594595 -2.141811908398584 -0.8819843580431517
H 1.6101132061673389 -0.09955054785316579 0.5048351272798483
H 1.0914188907846183 0.2433488446402277 2.164324239600026
H 0.32989629024573924 -1.1233771498116571 1.289857552427502
14

C -2.6118600875789957 -0.2704060543850774 -2.402217977960293
C -3.0091407023616443 0.5825642315909954 -0.2853806948460807
C -0.08268090846703213 -0.11285593100059285 -2.1074571399993904
C -1.3749756918385163 -0.7784543785397146 -1.780530218305353
O -3.3243082121971934 0.6037020303038261 -1.6222770524287784
O -1.4512783752108107 -1.7286948681395786 -1.0177512126809634
H -3.2823813868188516 -1.0984203179504262 -2.71761044025191
H -2.363615773292971 0.2752694190885139 -3.3586492941801587
H -3.7525037367936336 -0.050500515741521736 0.27193871803511455
H -3.192455578147808 1.6225383097245127 0.10667080657332505
H -1.975146224584554 0.33379983920855544 -0.050399843547988515
H 0.7701692976729351 -0.5346227911866998 -1.5547863356561011
H 0.10906569563371865 -0.28942030395369495 -3.193893127896873
H -0.20396242774555612 0.9752060894403293 -1.9076766077225444
14

C 0.03007057446490664 0.4980262493176891 0.2655207816028267
C -0.8742016095683816 2.2771365528094254 1.3819618073903752
C 0.4179857416863024 -1.3162799756903643 -1.4676897718054642
C 0.35295361844733636 0.1216348399196085 -1.1476698911697552
O 0.10483308698883584 1.8713627733308138 0.46883545739487686
O 0.5533400492111041 0.968357020565987 -1.9966825854747976
H 0.6731944748545801 -0.026978005480314253 0.9953313612485121
H -1.0107879241499398 0.16048707210006635 0.4451622914352323
H -1.161374436004314 1.3751951745007567 1.9871992615086307
H -0.5111265626606988 3.0619444452322324 2.0734583143899132
H -1.7985173242163144 2.618829264341378 0.8610904832671377
H -0.039911306571016665 -1.5697641183689957 -2.4461864561412114
H -0.15866547890811292 -1.9214808483179115 -0.7110890278524968
H 1.4967546825264246 -1.6303250719066833 -1.4425455612750386
14

C -0.27922216685279766 -0.1405550133556154 0.8299202264692078
C 1.4471017787839084 0.19825351598902827 -0.6770377744182785
C -0.9706215575432049 2.0441508582973555 -0.3248385162062136
C -1.0760027222940807 0.5627376593765191 -0.238064652107243
O 1.0853608320164425 0.11466927999624758 0.6481619946471848
O -1.7907661889273683 -0.05523680964276125 -1.0152466555933686
H -0.5294010012622588 0.296491601120277 1.8385009587545542
H -0.5109532037212996 -1.2054911369592478 0.8833123757604464
H 0.6150044747824237 0.41988072726699543 -1.3660583884256965
H 2.1790632573038176 1.0239238934857993 -0.7775140478712879
H 1.95226571824936 -0.7528012803448869 -0.9578571429099224
H -1.8492212435645643 2.552691606000701 0.16307753813825468
H -0.9424255046599965 2.321254126384629 -1.4020423468914713
H -0.06271787155784765 2.405363791631953 0.19755777025982116
14

C 1.9598022299233606 0.6874339181545505 2.2422305082829315
C 1.4365382280473886 -0.7691479405413546 0.5191291659315912
C -0.5268601490989876 1.3720928930853635 2.5709735952739354
C 0.9130180696792177 1.4830973826028346 2.9421798002960013
O 1.588623821752068 0.5744972967539584 0.8952518216404778
O 1.216145947099876 2.2487179557629724 3.8417296013199573
H 2.076472305078506 -0.29109387868248776 2.7286622196756056
H 2.9495753702067735 1.2236293953048172 2.261514385217386
H 0.4748930377375698 -0.8595439324460075 -0.01612513572292871
H 2.3165578443624724 -1.0053571611580956 -0.13309840680632423
H 1.4877254154880952 -1.4564420667882159 1.3804376719935327
H -0.639017114418175 0.44693119313838114 1.9669450410693476
H -1.1207002832479902 1.2279785469060438 3.4891357252950415
H -0.8548825006547254 2.2539273776207747 1.9708587770918446
14

C 0.18627634737787538 0.3133556954349254 0.6687839778175584
C -1.335033671480021 1.6989966838003618 -0.2552393185384319
C 1.0673770720596927 -1.1759887669272138 2.5468909665781543
C 0.45562872902635254 -1.0415559762842224 1.2036537779238214
O -0.9113629293360629 0.35448840803669257 -0.17246562459587658
O 0.18751048627113104 -2.033132493052009 0.5690614294350851
H 1.0893468369722175 0.733097573642573 0.21102613933485742
H -0.05932422056415122 0.965120079599078 1.5541159512289024
H -0.649620489583731 2.2273216672129483 -0.9453663726565369
H -2.3836715572881193 1.7756139820006178 -0.5636038854867903
H -1.1703815873070529 2.186161346073257 0.7490970754961804
H 2.0488312329942606 -1.6890384773064309 2.467013586922168
H 1.185071475239131 -0.18600418514644151 3.037952577656455
H 0.4163923210726732 -1.7768308487753353 3.240509641643469
14

C -0.8722962106980551 2.0562245417530973 -0.5193558201148585
C 1.1778993079369582 2.5726222124306486 -1.4465275262778041
C -0.7881659938758968 -0.46297062330061484 -1.0850659691238773
C -0.8617628497545483 0.9695893032397173 -1.5110100635214987
O 0.3149506106843822 2.7292753642793306 -0.3912042751144521
O -0.9120073148747937 1.1874876383472508 -2.709251362013216
H -1.6555888542675774 2.7941987379536686 -0.7980300979738981
H -1.1037936526837828 1.6042549292956911 0.4867999657724266
H 1.4864277162717106 1.5112198705745248 -1.6085971464850317
H 2.1311926572819497 3.1024331788867725 -1.1701799280239396
H 0.8210941515004473 2.9862478289615355 -2.3967722900442263
H -1.4252441385873824 -0.661098286949428 -0.1896137842228692
H 0.25883047999428926 -0.6415319988780518 -0.7776631560646694
H -1.1287936604495765 -1.1352454964946759 -1.8931175064277947
14

C 1.1073697715431357 1.8010525706369849 -1.6494211668698036
C 2.189206486563343 0.18097112157556172 -2.893824476423354
C -0.13940729784888542 -0.28916831581276314 -0.8233761911202746
C -0.12379376534728354 1.0118294115967157 -1.5267582083699969
O 1.8597490589377852 1.5126790526194458 -2.7643496427214873
O -1.151977304425617 1.4271724603587543 -2.00842866396697
H 1.6725040078800033 1.6969562463386585 -0.6990565016456577
H 0.8232438847036111 2.8778603559048195 -1.710894510930091
H 3.2060673504955695 0.1369327739914277 -3.3813826790643993
H 2.265180266940506 -0.37458561920369055 -1.9626032730544385
H 1.4630032843395722 -0.38470346009715284 -3.5462308033423864
H -0.0739365952870108 -1.100409568953595 -1.6017893746180916
H 0.725846333755707 -0.39913680651365496 -0.12142788449085244
H -1.0599538348630548 -0.41654264918778056 -0.21958733068070915
14

C 0.1719408484839161 -0.12180232419973235 -0.8118980134837424
C 0.25573321252264586 -2.1117613496794037 0.20543874489202615
C 1.0259371831300343 1.064207674009738 1.2952864258830914
C 1.3186713158736107 0.3940409314695247 -0.01034709331966561
O -0.5855431041473068 -1.030993733827191 -0.06298799046803653
O 2.4586549656060535 0.28861153706719755 -0.3779325693283609
H -0.5271004951046563 0.7227677548358133 -1.0447886920814218
H 0.5214949990932101 -0.5964258354317545 -1.7335284243841032
H -0.31885034007167995 -3.050699624829687 0.35369393401534177
H 0.7825465379580959 -1.8928363087059668 1.154988108175575
H 1.0190688970780915 -2.2539299630407563 -0.5687503050555774
H 0.9788334982452425 2.1744400558935313 1.160629080433097
H 1.8713552139124963 0.9100475984161414 2.026920438583001
H 0.12868768641589917 0.6534577644028853 1.7880768737115993
14

C -0.24616705313384343 -0.8758622631834416 0.024896845274408
C 1.894161523985042 -0.5049677413261252 -0.7711156137257105
C -0.5623950803929776 0.20177957857231632 2.332498573805956
C -0.25935147243961565 0.34487343641351104 0.8683541284400229
O 1.0112683981298602 -1.384893394012217 -0.19503469025622977
O -0.03617926944836712 1.4565946273622121 0.42968806687687927
H -0.790767120039754 -0.6713430244017146 -0.9428388713760889
H -0.841250699281207 -1.6733592167084512 0.5303614034240439
H 2.359642932098033 -0.9516001744374215 -1.6916763688709386
H 2.737389104500719 -0.36324693973571937 -0.054982154201545036
H 1.4846321073231654 0.46660884922939 -1.0434638073204632
H 0.2108783960373039 -0.4587305419360228 2.7438437807608467
H -0.5083498105266749 1.1685385822780476 2.8363622657225593
H -1.551261856044165 -0.23831440259431524 2.5057519096855905
14

C -0.16341669968109052 1.4632847373184403 -0.5354157604272897
C 0.6020741096298967 -0.04113317040354893 -2.109994850233843
C -2.157018765128699 0.9478932029319974 0.9331420702415613
C -0.7486728323739087 1.3546932274212635 0.8103772866943589
O -0.364828282408174 0.2573343310518149 -1.181100951344894
O -0.09307593286955437 1.592294237612971 1.7862438785781576
H 0.8972363048907388 1.7856369616562557 -0.5261666409882809
H -0.7501776560169932 2.2323490707615297 -1.1096087956495309
H 0.3146497922070032 -0.9985337798257425 -2.596861360181155
H 1.632038268017932 -0.11088326946775925 -1.6790203211626251
H 0.5904668042739668 0.725092256514971 -2.902995283372058
H -2.246548673113258 -0.06297717267284268 0.4401788755695663
H -2.4986023714226477 0.8815866320241315 1.9797186253695433
H -2.7841793961494847 1.6342694230709245 0.31955071146465963
14

C -0.03769254800970619 1.2511819693856734 0.18729079513139069
C 0.3217057400116187 1.7038020792378037 2.4226179376904438
C -0.33079020063309905 2.450305379908874 -2.0425237852024294
C -0.14164037853735179 2.50374765112775 -0.5750561758855908
O -0.6134060817615865 1.401342812644974 1.449509007033501
O -0.0745926319167605 3.6000938415403216 -0.01785255063340374
H 1.041327331985575 0.9845396724670891 0.3099505032965621
H -0.5951098394821314 0.4406154356121138 -0.3170990682406221
H 1.3639021056907956 1.628901613297994 2.0535554597529693
H 0.21513619105615092 2.7594592678027583 2.8054890439118316
H 0.19815964746834644 1.063010651725563 3.325485744912587
H -0.8795983398792344 3.3621920761555084 -2.33978032931999
H -0.9167799129335549 1.513678213475986 -2.2615950561534666
H 0.6492300593696104 2.3531944535355844 -2.5197183470679216
14

C 0.9730174052261992 -1.352273274832383 0.7213695986982414
C -0.6714824481682099 -1.3921195386347391 -0.8235247775539954
C -0.26629266980969657 0.35093211855642376 2.2592363095346433
C 0.7799698403539869 0.037172384988349405 1.2356403870635846
O 0.6993253568552537 -1.4124725682229788 -0.6471381774818296
O 1.4927333862645285 0.9103785918358643 0.8039413516345895
H 2.0633707480128063 -1.6061153098546135 0.8189132749207255
H 0.3415305724156533 -2.061373697963175 1.3056932643864108
H -1.0940736518514438 -0.3647323593327299 -0.7355430188499549
H -0.9251544157501359 -1.7870725062840944 -1.816849841648592
H -1.1777485762360467 -2.044697123650848 -0.0681828969403778
H -0.7809522471066842 1.2646615116944728 1.9005183539509145
H 0.2748795705878322 0.6623396129242274 3.1932103192826804
H -0.9295513601479362 -0.5066815482255457 2.4200076888542075
14

C -0.73476580387507 0.06826743834292867 -0.825040631997372
C 0.16898991495605478 0.40333273381742224 1.281665056191602
C -2.4899364827578685 -1.380721579950912 0.4715655404471263
C -2.0644921915772505 -0.606642656658675 -0.7143992750312237
O 0.15684848549933283 -0.3682689399318927 0.140183728307502
O -2.8137944729502893 -0.5012929658018938 -1.653189614431636
H -0.8977521826811149 1.146222485975911 -0.8400596596348673
H -0.3358761936518736 -0.21353968901481934 -1.827109010235312
H 0.30254559196407854 1.478743346961083 1.109300435531994
H 1.0574543837592838 0.07443690976080553 1.8822319583864522
H -0.7085063576162808 0.217581209446277 1.9441802974188571
H -3.1164343260482448 -0.7199029936622325 1.1018567009833198
H -1.6619637433066612 -1.8051639826814903 1.0476576617775883
H -3.116474275029261 -2.2351957109351837 0.13077125428576322
