17
Coordinates from ORCA-job 105772_0-TSOPT
  C   -0.41630242535718      0.03291845776711     -0.85518933916018
  C   0.45346221579508     -0.58137917618038      2.11832961987630
  C   0.23169485455909     -0.39180142552924     -1.92835554802735
  C   0.28967694295473      0.89850957409094      0.16286610608020
  C   -1.86150981602200     -0.26846730897021     -0.59672250394354
  N   0.00488404775173      0.55861755689091      1.54556991820460
  O   1.10797113603021     -1.42468792564862      1.55199050300065
  H   4.69278417455649     -0.48269077945189     -0.11554457023671
  H   0.15617649118332     -0.66947690176198      3.17948808548172
  H   1.28595887391204     -0.18101147674156     -2.06389843255302
  H   -0.26291676892496     -0.97248278245473     -2.69813479925413
  H   -0.03159648667880      1.93471391087300      0.02589792131207
  H   1.36796000038931      0.85494823587739     -0.00975989686175
  H   -1.96615661674891     -0.91638929230762      0.27693346029044
  H   -2.31695993104549     -0.77001483068445     -1.44973228045413
  H   -2.42736146063763      0.64487289514058     -0.38866920339814
  H   -0.49790651171702      1.20844587909075      2.12109125964297
