16

Br                    5.02876000           1.63113000          -1.16045000         
C                     8.12609000           1.79112000           5.11717000         
C                     7.40144000           1.62488000           2.28700000         
C                     6.47388000           1.84523000           3.32699000         
C                     6.96855000           1.56164000           0.95884000         
C                     5.11773000           1.99857000           3.00811000         
C                     5.61337000           1.71681000           0.65383000         
C                     4.68834000           1.93513000           1.67882000         
H                     8.10926000           1.89474000           6.22144000         
H                     8.53747000           0.79136000           4.86158000         
H                     8.45609000           1.50172000           2.49313000         
H                     7.68734000           1.39233000           0.16732000         
H                     4.39304000           2.16820000           3.79466000         
H                     8.77411000           2.58949000           4.69662000         
H                     3.63778000           2.05584000           1.44696000         
O                     6.84038000           1.91615000           4.63296000         
