11

Fe        -1.27111        0.18692        0.02307
C         -2.41152       -1.48255       -0.09987
C         -0.13181        1.85718        0.14575
C          0.36869       -0.95639        0.34817
O          0.50238        2.78757        0.21402
O         -3.04691       -2.41210       -0.16837
O          1.28201       -1.59329        0.52888
C         -1.79742        0.68523       -1.86826
C         -2.38233        0.83018        1.58952
O         -2.09008        0.96240       -2.92182
O         -3.00086        1.18817        2.46229
