14

C 0.58788894 0.67623236 -1.24134147
N -0.68935335 1.16036633 -0.76933616
N 0.40507991 -2.31040883 -0.24438249
C -1.26035432 0.44347757 0.14625213
N 0.19815811 2.02651273 1.58056069
N -1.8101028 -0.21889884 0.93911276
H 0.17326952 1.67758108 2.55685029
H -0.70897028 2.52233973 1.5403958
H 0.8852146 1.26969241 -2.09975139
H 0.54206862 -0.39068242 -1.48706614
H 1.33859493 0.77300072 -0.4509699
H -0.2884292 -2.98929707 -0.64496354
H -0.11777667 -1.61893773 0.4018695
H 0.98824871 -2.89219743 0.36970209
