77
Coordinates from ORCA-job CWMHSQPVYVHHDK-QJPJQTDYNZXKQF_0_0-TSOPT
  Br  0.11395861448215      3.26245829733604     -0.97535444669650
  C   -2.53236283783725     -0.95620933064885     -1.95483535683789
  C   -4.16822974362265     -2.14546542264581     -0.55370424913573
  C   3.34984528461865     -2.02254816511985     -1.39894877457979
  C   0.90447800859010     -1.82330635280884     -1.41560160576333
  C   -3.13052222202338     -2.58953436015820      0.24230578273855
  C   0.83433235545371     -3.20571719695834     -1.65446138185664
  C   -1.45412166539371     -1.40648248033219     -1.09730829619967
  C   3.24902792841450     -3.40208022901986     -1.63369791080032
  C   -2.27317274801272     -0.17157657924725     -3.10339158965986
  C   -3.89089544843532     -1.31331206702573     -1.66773394015023
  C   2.20449504902027     -1.20687532100796     -1.27725099940410
  C   -1.78021820940805     -2.23143100462302      0.01033673367077
  C   1.98884939486106     -3.99687054116261     -1.76068757265080
  C   -4.91487563053809      0.15269047792687      2.67468694923741
  C   -3.74849473739399      1.74477349526331     -0.39377755383920
  C   -3.72933739434004      1.26204959419643      0.92763779901561
  C   -3.29568787906497      0.28213348034521     -3.91889181054094
  C   -4.92357655180485     -0.82420885303300     -2.51198745644546
  C   -2.60006427791566      2.26478066434536     -0.97325680572490
  C   -2.54071889005767      1.33915239730015      1.67245437960988
  C   -1.42653406775165      2.30483375211753     -0.22551150207863
  C   -1.39015043557855      1.88579672722221      1.09746595350409
  C   -0.75431478052238     -4.01808907649315      1.43624004445816
  C   -0.76909516465985     -2.68428241857703      0.98948299296353
  C   -4.63775645811186     -0.03732864319229     -3.61252814089095
  C   3.40620376386542      0.85172199070624     -1.13688024607853
  C   3.91383968607418      1.11057388725089     -2.43016027517392
  C   4.24965949818763      0.23410351353104      3.59361361646393
  C   4.60695118087107      0.45695272733709      2.26016462115160
  C   2.99912837597496      0.64737283839449      4.06068076369904
  C   3.72104191898741      1.08829828214685      1.37238914109936
  C   4.13242182444065      1.36107444269953     -0.02464538541281
  C   0.18824403887031     -4.45845807440620      2.36932570324655
  C   5.07035408101859      1.85872364007460     -2.63530463645109
  C   0.18335652463377     -1.79990218161802      1.52698871758314
  C   2.11455137988938      1.28127443425603      3.18121117774394
  C   2.47458453997812      1.49125087099853      1.85794622068807
  C   5.30376914236056      2.10525596240962     -0.24900900311266
  C   5.77702480792516      2.36525647268730     -1.53597382934496
  C   1.14084018387312     -3.57056049207471      2.87874698804860
  C   1.12744952699240     -2.23576479483873      2.45520754490177
  Cu  0.40765378857275      0.85177442394718     -1.02904321093371
  H   -1.23699718429475      0.08186570104454     -3.32608983179835
  H   -4.69753340456202      0.88383251067692      3.46629921788213
  H   -5.20052568232780     -2.41123626095725     -0.32508267934682
  H   4.33182733226238     -1.56140761868662     -1.28505649214235
  H   -0.14931780706404     -3.66377184634331     -1.76497328755313
  H   -3.35476363137707     -3.20177997810083      1.11730947122500
  H   4.15647350268668     -4.00410623194574     -1.71072717598510
  H   -5.92974229315782     -0.23427717183421      2.81010440761947
  H   -1.47620324058933     -4.72485684344281      1.02511328435569
  H   -4.66640517432558      1.67575797688431     -0.97284451843200
  H   -2.61333762752853      2.61713053499096     -2.00113866389131
  H   -2.49227471935101      0.98887030145355      2.70063678217986
  H   1.89562128358751     -5.06787091232551     -1.94864186876655
  H   -3.06629186783538      0.88809997610100     -4.79641559121563
  H   3.36057070189734      0.70810186392200     -3.28018707631944
  H   -4.19904769436729     -0.67979234257954      2.73137889447655
  H   -5.95670209768738     -1.08234600846676     -2.27274644519302
  H   -0.48004556020942      1.97389784142828      1.68399996683080
  H   4.94884948935722     -0.26491906630565      4.26574963075350
  H   5.58184048602595      0.13093876964941      1.89552145407037
  H   -5.44512399567163      0.32916198891343     -4.24839903771486
  H   2.71414416923673      0.47579267680157      5.09929773623067
  H   0.18590595050668     -5.50183097070143      2.68850132708116
  H   0.18916378617528     -0.76179324254180      1.19643381380981
  H   5.41982114369063      2.05229847039638     -3.65109569500062
  H   1.13693556684909      1.61344426916898      3.53168268538214
  H   1.79012331377311      1.99354323374353      1.18074380655276
  H   5.84734032862420      2.49208894719591      0.61475314470890
  H   6.68119437058085      2.95741797642712     -1.67975522603263
  H   1.88552733747710     -3.91310344947709      3.59860530815135
  H   1.85573055821239     -1.52625881074855      2.84989335838128
  N   -0.18474619356612     -0.98101032994744     -1.38722311812354
  N   2.23055340592642      0.13072757331216     -0.98586953777437
  O   -4.89179710843770      0.75776653479367      1.39141062553687
