77
Coordinates from ORCA-job CWMHSQPVYVHHDK-QJPJQTDYNZXKQF_0_0-COPT
  Br  0.37275988746150      3.22237697520704     -0.47518197395533
  C   -2.44915843116835     -0.98601523714015     -1.69504187255559
  C   -4.12126395203892     -2.08813388680594     -0.27653461182157
  C   3.29359324791825     -1.99064593660030     -1.75588084887422
  C   0.88826284613274     -1.74822484842384     -1.34184310896434
  C   -3.10461899234055     -2.51976143989901      0.55099973732048
  C   0.72538567859891     -3.09293632510410     -1.72385560665480
  C   -1.40820196048402     -1.36205258262048     -0.77219545748536
  C   3.10398838219580     -3.33020527457001     -2.13693739014249
  C   -2.14162490668808     -0.30199644089538     -2.89668919280797
  C   -3.81507211403003     -1.33268534308600     -1.43529934182828
  C   2.21562108842356     -1.18017988760405     -1.35410943009520
  C   -1.74435326929489     -2.18615158502102      0.32234673371182
  C   1.81887638564014     -3.88120996439933     -2.11963461032382
  C   -5.52367339448895      0.50543686192575      2.10082687625696
  C   -3.61801708379863      1.87345904402953     -0.69232063488694
  C   -3.90656712268554      1.42423149872279      0.60880064694114
  C   -3.13178146248796      0.06025332990101     -3.79124116777838
  C   -4.81718811241996     -0.91866045914911     -2.35279925849532
  C   -2.32830044055764      2.24264112673525     -1.04474540434938
  C   -2.88315254079469      1.39419424686244      1.57099845646205
  C   -1.32285589623093      2.17109907173737     -0.08511802202139
  C   -1.59202295346360      1.80341250538720      1.22862100912987
  C   -0.78191054473264     -4.10309332186572      1.59391874432199
  C   -0.72560971593450     -2.74149670116608      1.24097924500860
  C   -4.48606319392037     -0.23514624818789     -3.50750521572052
  C   3.42961744773350      0.88350975660072     -1.12153756402789
  C   3.87966080367928      1.13874810462836     -2.43900441828696
  C   4.63857689353729      0.51317700993384      3.58098377642026
  C   4.89082870556983      0.84880316450326      2.24852766447526
  C   3.32499619221776      0.48095690063767      4.05938215041874
  C   3.84182617673501      1.15537297305707      1.36134749807497
  C   4.13852353774247      1.49791375596606     -0.04415036082297
  C   0.16460663082039     -4.67005289638892      2.45064651581674
  C   4.93966789014890      2.00012107745608     -2.70199067400399
  C   0.30742936446007     -1.96118320499658      1.78894757240961
  C   2.27734053823228      0.79283446814406      3.18762560464824
  C   2.53613700040165      1.11062700228026      1.86220100305940
  C   5.20677671914813      2.36646988596136     -0.33445025050508
  C   5.60999937097525      2.63172800411475     -1.64276361644382
  C   1.19519417834184     -3.88391741154151      2.97436209321469
  C   1.25668481826953     -2.52593972561037      2.64115399066155
  Cu  0.55184300550324      0.87678197667910     -0.46169200275643
  H   -1.09742085376958     -0.05872852404752     -3.09003725899032
  H   -5.38464631829359      1.23635119003700      2.91016224048558
  H   -5.16041970631150     -2.33280606857871     -0.05520484909181
  H   4.29825876931728     -1.56555617925506     -1.75078692151325
  H   -0.27887927700542     -3.51843889658476     -1.72050141820486
  H   -3.34893332562411     -3.11187856277472      1.43408624273538
  H   3.96313592026029     -3.93352270427494     -2.43586386983929
  H   -6.58207212985086      0.23283087522583      2.03988445738659
  H   -1.56669496887190     -4.72991006097143      1.16896600000823
  H   -4.41054889729018      1.88847984429047     -1.43708989528519
  H   -2.10508195506950      2.57303163923280     -2.05578733495656
  H   -3.07442935166076      1.06566242902599      2.58988305942321
  H   1.65645678203342     -4.91950731273249     -2.41497372530564
  H   -2.87182871113918      0.58364408430241     -4.71225004257181
  H   3.34896996383877      0.65473388740686     -3.25982304728981
  H   -4.92931483660667     -0.39593609474268      2.30717543309471
  H   -5.85855171510297     -1.15785766940331     -2.13122168934004
  H   -0.80536536063409      1.81687111277999      1.98115759912693
  H   5.47036507926997      0.27070446160228      4.24368693053192
  H   5.91709625056621      0.85594998809190      1.87958321334018
  H   -5.26713143878229      0.07065812259060     -4.20514439879952
  H   3.12052869368578      0.21855927464486      5.09807581568703
  H   0.10298285627461     -5.73067327331895      2.69856500338520
  H   0.37395577962643     -0.90560673924241      1.53022674493413
  H   5.23670549842522      2.19474073179697     -3.73425888237795
  H   1.24572886569441      0.79028781667965      3.54040536152123
  H   1.71041826179196      1.39747289329082      1.22492498584099
  H   5.72881370441364      2.84524948064787      0.49564014478459
  H   6.43163768243921      3.32180438169073     -1.83614250684706
  H   1.94278379478897     -4.32317163341567      3.63629870496014
  H   2.04910797544080     -1.89777905754137      3.04921130978290
  N   -0.13011914382134     -0.89850737289216     -1.00818837230597
  N   2.32041970997746      0.10373000385183     -0.88749399911294
  O   -5.18580736577856      1.05969693571982      0.83983469643459
