77

Br                    0.11395861           3.26245830          -0.97535445         
C                    -2.53236284          -0.95620933          -1.95483536         
C                    -4.16822974          -2.14546542          -0.55370425         
C                     3.34984528          -2.02254817          -1.39894877         
C                     0.90447801          -1.82330635          -1.41560161         
C                    -3.13052222          -2.58953436           0.24230578         
C                     0.83433236          -3.20571720          -1.65446138         
C                    -1.45412167          -1.40648248          -1.09730830         
C                     3.24902793          -3.40208023          -1.63369791         
C                    -2.27317275          -0.17157658          -3.10339159         
C                    -3.89089545          -1.31331207          -1.66773394         
C                     2.20449505          -1.20687532          -1.27725100         
C                    -1.78021821          -2.23143100           0.01033673         
C                     1.98884939          -3.99687054          -1.76068757         
C                    -4.91487563           0.15269048           2.67468695         
C                    -3.74849474           1.74477350          -0.39377755         
C                    -3.72933739           1.26204959           0.92763780         
C                    -3.29568788           0.28213348          -3.91889181         
C                    -4.92357655          -0.82420885          -2.51198746         
C                    -2.60006428           2.26478066          -0.97325681         
C                    -2.54071889           1.33915240           1.67245438         
C                    -1.42653407           2.30483375          -0.22551150         
C                    -1.39015044           1.88579673           1.09746595         
C                    -0.75431478          -4.01808908           1.43624004         
C                    -0.76909516          -2.68428242           0.98948299         
C                    -4.63775646          -0.03732864          -3.61252814         
C                     3.40620376           0.85172199          -1.13688025         
C                     3.91383969           1.11057389          -2.43016028         
C                     4.24965950           0.23410351           3.59361362         
C                     4.60695118           0.45695273           2.26016462         
C                     2.99912838           0.64737284           4.06068076         
C                     3.72104192           1.08829828           1.37238914         
C                     4.13242182           1.36107444          -0.02464539         
C                     0.18824404          -4.45845807           2.36932570         
C                     5.07035408           1.85872364          -2.63530464         
C                     0.18335652          -1.79990218           1.52698872         
C                     2.11455138           1.28127443           3.18121118         
C                     2.47458454           1.49125087           1.85794622         
C                     5.30376914           2.10525596          -0.24900900         
C                     5.77702481           2.36525647          -1.53597383         
C                     1.14084018          -3.57056049           2.87874699         
C                     1.12744953          -2.23576479           2.45520754         
Cu                    0.40765379           0.85177442          -1.02904321         
H                    -1.23699718           0.08186570          -3.32608983         
H                    -4.69753340           0.88383251           3.46629922         
H                    -5.20052568          -2.41123626          -0.32508268         
H                     4.33182733          -1.56140762          -1.28505649         
H                    -0.14931781          -3.66377185          -1.76497329         
H                    -3.35476363          -3.20177998           1.11730947         
H                     4.15647350          -4.00410623          -1.71072718         
H                    -5.92974229          -0.23427717           2.81010441         
H                    -1.47620324          -4.72485684           1.02511328         
H                    -4.66640517           1.67575798          -0.97284452         
H                    -2.61333763           2.61713053          -2.00113866         
H                    -2.49227472           0.98887030           2.70063678         
H                     1.89562128          -5.06787091          -1.94864187         
H                    -3.06629187           0.88809998          -4.79641559         
H                     3.36057070           0.70810186          -3.28018708         
H                    -4.19904769          -0.67979234           2.73137889         
H                    -5.95670210          -1.08234601          -2.27274645         
H                    -0.48004556           1.97389784           1.68399997         
H                     4.94884949          -0.26491907           4.26574963         
H                     5.58184049           0.13093877           1.89552145         
H                    -5.44512400           0.32916199          -4.24839904         
H                     2.71414417           0.47579268           5.09929774         
H                     0.18590595          -5.50183097           2.68850133         
H                     0.18916379          -0.76179324           1.19643381         
H                     5.41982114           2.05229847          -3.65109570         
H                     1.13693557           1.61344427           3.53168269         
H                     1.79012331           1.99354323           1.18074381         
H                     5.84734033           2.49208895           0.61475314         
H                     6.68119437           2.95741798          -1.67975523         
H                     1.88552734          -3.91310345           3.59860531         
H                     1.85573056          -1.52625881           2.84989336         
N                    -0.18474619          -0.98101033          -1.38722312         
N                     2.23055341           0.13072757          -0.98586954         
O                    -4.89179711           0.75776653           1.39141063         
