13
q -1
Fe                   -4.73967756          -0.32255583           0.25052803         
C                    -5.64520805          -2.78005050          -0.10897126         
C                    -4.14695384           2.23463081           0.60370634         
O                    -4.35600652           1.13153808           1.43200545         
O                    -5.11931177          -1.77917702          -0.92739444         
Cl                   -6.91877436           0.36046820           0.10676652         
Cl                   -2.56530980          -1.00976785           0.39426247         
H                    -5.33817319          -2.59843487           0.94143955         
H                    -5.24411101          -3.76450713          -0.42527563         
H                    -6.75229983          -2.77632506          -0.17944308         
H                    -3.44656492           2.93801211           1.09884632         
H                    -5.11247674           2.74491743           0.40875516         
H                    -3.69139874           1.90253468          -0.35175460         
13
q -1
Fe                   -3.76091824          -0.25158643          -0.46289005         
C                    -5.58369223          -1.98922515           0.32019414         
C                    -5.36419307           1.37517043           1.65776356         
O                    -4.39174565           0.96168164           2.26503258         
O                    -4.63079201          -1.93559661          -0.69611440         
Cl                   -5.06068183           0.65233461          -2.10696133         
Cl                   -2.20287541          -0.84230948          -2.01974938         
H                    -5.91206257          -3.03972766           0.45807681         
H                    -5.13362237          -1.63715487           1.27052317         
H                    -6.45659344          -1.36085393           0.04807767         
H                    -2.98497161           1.23309776          -0.26275169         
H                    -6.36157943           1.08241922           1.96663375         
H                    -5.23267214           2.03285046           0.80556518         
