  16

 C          0.6826015581       -1.1998913616       -0.3351248271
 C         -0.6870455659       -1.1974473368        0.3344440208
 H          1.2240801059       -2.1167178036       -0.0936322389
 H          0.5511279712       -1.1614011232       -1.4185041128
 H         -0.5555997986       -1.1602905818        1.4177592079
 H         -1.2320112111       -2.1119913674        0.0925907511
 C         -1.4835912948        0.0221005933       -0.1211830167
 C         -0.6564734683        1.2692048712       -0.0550529686
 C          0.6611975128        1.2667489826        0.0545845069
 C          1.4835686643        0.0164669055        0.1216680746
 H         -2.3774605528        0.1426082692        0.4964219807
 H         -1.8247185241       -0.1211879339       -1.1523849778
 H         -1.2004765087        2.2024763203       -0.1124730290
 H          1.2086422447        2.1979606521        0.1120499138
 H          2.3785599557        0.1336085493       -0.4951086422
 H          1.8228785521       -0.1282264040        1.1533697326
          16
        -17.93143887
 C          0.6854281256       -1.1978976295        0.3355809751
 C         -0.6835055622       -1.1987630170       -0.3358300122
 H          0.5526108358       -1.1588413993        1.4189069595
 H          1.2295165056       -2.1134875191        0.0949918757
 H         -1.2261392919       -2.1153216081       -0.0955054029
 H         -0.5508835389       -1.1591382328       -1.4192132864
 C         -1.4835276030        0.0180448242        0.1216750894
 C         -0.6598917792        1.2675353240        0.0547732292
 C          0.6577999550        1.2685362232       -0.0549859230
 C          1.4835338418        0.0204161610       -0.1212980716
 H         -1.8228692856       -0.1266116750        1.1534420751
 H         -2.3784698285        0.1363077244       -0.4950052860
 H         -1.2063184672        2.1994762840        0.1124656814
 H          1.2027692509        2.2012825830       -0.1124630213
 H          1.8239740387       -0.1234746127       -1.1527802263
 H          2.3777524900        0.1401346576        0.4961701428
