  16

 C         -0.9956591000        1.1136592300        0.1813245000
 C         -1.2760698100        2.6023550300        0.0062140100
 H         -1.8701533600        0.6070123900        0.5965245200
 H         -0.7812413000        0.6721264000       -0.7951902600
 H         -1.4187399900        3.0586519400        0.9897641100
 H         -2.1915354800        2.7528131800       -0.5721487100
 C         -0.0976857000        3.2706679300       -0.6980248900
 C          1.2071210200        2.8588326300       -0.0880786700
 C          1.3421774700        1.8149415800        0.7122400800
 C          0.2065760700        0.9188961700        1.1016254700
 H         -0.1965184400        4.3590319700       -0.6504829200
 H         -0.0939422200        2.9956459200       -1.7594420400
 H          2.0642879900        3.4656593200       -0.3475561300
 H          2.3069936200        1.5693589700        1.1358264700
 H          0.5372480300       -0.1228972700        1.0760273200
 H         -0.0779454800        1.1389695600        2.1367741600
