21

C -0.16143291 1.76597638 0.20478333
C -1.01979408 -0.51974182 0.05260809
C -0.5046309 -1.85889532 0.51608324
C 1.16605355 -0.58834668 -0.17927021
C 1.59207482 0.25963728 0.9643991
C -1.42025969 -0.56309541 -1.38347501
N 1.09827012 1.65578873 0.78887012
O -0.18846612 2.16808271 -1.09271271
O 0.87836669 -1.91271666 0.13864604
H -0.95894217 2.22615119 0.78316958
H -1.78852263 -0.12275555 0.71260865
H 1.7614852 -0.47895233 -1.08167017
H -1.03302761 -2.68366484 0.02863848
H -0.5828867 -1.99921059 1.59746405
H 2.67877818 0.29257728 1.0704528
H 1.19793067 -0.1672819 1.89511471
H -1.58188471 0.42443607 -1.80414669
H -2.34995059 -1.13809315 -1.48415832
H -0.65887348 -1.07064014 -1.9761899
H 1.15949605 2.161121 1.66214078
H 0.71621633 2.14962376 -1.41335595
