16

C                     0.66487000          -2.05930000          -0.60303000         
C                    -0.66508000          -2.05886000          -0.58170000         
H                     1.22455000          -2.45908000           0.23634000         
H                     1.19775000          -1.64936000          -1.45475000         
H                    -1.19824000          -2.45891000           0.27466000         
H                    -1.22501000          -1.64930000          -1.41618000         
C                    -1.50209000           0.73771000           0.76247000         
C                    -0.75183000           1.46021000          -0.07816000         
C                     0.73430000           1.46308000          -0.10166000         
C                     1.51799000           0.74795000           0.71407000         
H                    -1.07672000           0.08233000           1.51213000         
H                    -2.58429000           0.79684000           0.69937000         
H                    -1.26000000           2.08740000          -0.80264000         
H                     1.21635000           2.09594000          -0.84365000         
H                     2.59694000           0.81385000           0.61516000         
H                     1.12189000           0.08942000           1.47712000         
16

C                     0.76777972          -1.22912604          -0.20793820         
C                    -0.77316741          -1.23198475          -0.17665544         
H                     1.15332856          -2.07536192           0.36790069         
H                     1.10429721          -1.35615712          -1.24139388         
H                    -1.13186463          -2.07412798           0.42212339         
H                    -1.15045925          -1.37025216          -1.19444487         
C                    -1.37707885           0.06703362           0.38854382         
C                    -0.66648990           1.26281695          -0.17852113         
C                     0.65998548           1.26357795          -0.19898562         
C                     1.38861275           0.06741802           0.34389248         
H                    -1.26960212           0.06378991           1.48017597         
H                    -2.44567072           0.10031328           0.16134638         
H                    -1.26046058           2.08392032          -0.56295714         
H                     1.24092720           2.08514059          -0.60187903         
H                     2.44977934           0.10201388           0.08441224         
H                     1.31399381           0.06049889           1.43821903         
