16

C                     0.46431957          -2.40060596          -0.46522251         
C                    -0.48103055          -2.39478783           0.47423119         
H                     1.51265643          -2.39082741          -0.18314571         
H                     0.19560211          -2.38616990          -1.51618290         
H                    -0.21250854          -2.37651287           1.52505609         
H                    -1.52935581          -2.37964769           0.19178058         
C                    -1.49874144           0.78515540          -0.20265102         
C                    -0.74264030           1.86201548           0.04935152         
C                     0.74197734           1.85885039          -0.04898455         
C                     1.51914091           0.79980610           0.18978872         
H                    -2.57575065           0.85050236          -0.13055802         
H                    -1.05953732          -0.14157986          -0.52937135         
H                    -1.23548554           2.78823111           0.29176438         
H                     1.22901797           2.80199556          -0.26901502         
H                     2.59129433           0.87749024           0.12070580         
H                     1.08173455          -0.13707776           0.50280228         
16

C                     0.69193513          -1.20537547          -0.32762076         
C                    -0.69098632          -1.20591396           0.32750961         
H                     1.23351689          -2.11667147          -0.05752810         
H                     0.57829670          -1.19201045          -1.41688427         
H                    -0.57726039          -1.19274811           1.41676753         
H                    -1.23192735          -2.11754879           0.05727987         
C                    -1.48996084           0.02116864          -0.11978891         
C                    -0.66102803           1.27451995          -0.05397034         
C                     0.66008929           1.27501910           0.05389829         
C                     1.48988728           0.02224233           0.11994011         
H                    -2.37848164           0.13644028           0.50992738         
H                    -1.84311321          -0.11946672          -1.14918016         
H                    -1.21288706           2.20824723          -0.10716373         
H                     1.21124627           2.20918872           0.10695086         
H                     2.37865223           0.13807821          -0.50933838         
H                     1.84271412          -0.11833212           1.14955047         
