16

  C  0.65574027 -1.60805815 -0.55501584
  C -0.66438051 -1.61248771 -0.53139296
  H  1.24279343 -2.04903227  0.23301515
  H  1.20806968 -1.20418225 -1.38605014
  H -1.21989266 -2.05729145  0.27708622
  H -1.24878632 -1.21242393 -1.34208413
  C -1.48560820  0.68945678  0.69202286
  C -0.73045198  1.42390036 -0.12286411
  C  0.71607850  1.42871306 -0.14870586
  C  1.50472639  0.69940774  0.63860421
  H -1.06858675  0.10725890  1.49335573
  H -2.55983978  0.69401587  0.61852290
  H -1.21057699  2.02610849 -0.88397005
  H  1.16469537  2.03400704 -0.92640691
  H  2.57559337  0.71110284  0.52678329
  H  1.12047358  0.11455122  1.45425653