16

  C  0.76883355 -1.07044598 -0.27238483
  C -0.77091063 -1.07559290 -0.24484541
  H  1.16412960 -1.94774357  0.24197577
  H  1.12133607 -1.10865548 -1.30481816
  H -1.14168592 -1.95543022  0.28325472
  H -1.15984092 -1.11632950 -1.26401698
  C -1.32623695  0.19026590  0.43536864
  C -0.66988153  1.39363058 -0.16382775
  C  0.65429225  1.39804418 -0.18748346
  C  1.33963915  0.19915353  0.38774084
  H -1.09234173  0.14236767  1.50537381
  H -2.41055856  0.22619440  0.33088834
  H -1.27411495  2.17746702 -0.58892663
  H  1.23771815  2.18583984 -0.63380076
  H  2.41927499  0.24230609  0.24461731
  H  1.14441911  0.14980486  1.46540719