16

  C  0.67968268 -1.37409775 -0.43818122
  C -0.68568862 -1.37869362 -0.41375941
  H  1.24025512 -1.94222478  0.28516535
  H  1.20366594 -1.11357717 -1.34218063
  H -1.21620157 -1.95045377  0.32913194
  H -1.24342066 -1.12180318 -1.29839891
  C -1.41218926  0.47943347  0.58031187
  C -0.70924274  1.41083831 -0.12830960
  C  0.69477844  1.41551032 -0.15339115
  C  1.42875791  0.48886671  0.52954690
  H -1.01773813  0.06598014  1.49190449
  H -2.48455955  0.42423871  0.47886186
  H -1.22596663  2.01543843 -0.86198833
  H  1.18093812  2.02345025 -0.90498133
  H  2.49716557  0.44080146  0.38986085
  H  1.06987728  0.07291622  1.45460378