16

C 0.67444474 -1.44683252 -0.4366869
C -0.67871561 -1.4528278 -0.40677496
H 1.2416026 -1.9808878 0.30755125
H 1.20310907 -1.20359987 -1.34141967
H -1.20718658 -1.98905651 0.36391223
H -1.24931331 -1.21649328 -1.28742498
C -1.43362303 0.51892728 0.55613047
C -0.71296477 1.45552957 -0.10871931
C 0.70005144 1.4599185 -0.13157073
C 1.44753183 0.52641628 0.50760026
H -1.05482705 0.05051048 1.44475718
H -2.5030038 0.48117105 0.4249184
H -1.21357549 2.11953443 -0.80193155
H 1.17386512 2.12815756 -0.83936084
H 2.51245348 0.49648946 0.34264293
H 1.10015134 0.05304319 1.40637622
