16

C -0.7126218028806797 0.29147242507332316 0.6446101464538811
C 0.6794067794711441 -0.04414726481081699 1.0747074586838998
H -0.9219446498226874 1.3410015507289783 0.9392085271020875
H -1.3991350656690797 -0.4286010566409861 1.1671643989877507
H 0.7919990982883767 0.29731144049058794 2.1315541334885566
H 0.8722037214671001 -1.1453775180389467 1.0885793409423115
C 1.7224650180156027 0.6987479194885438 0.27373847909003535
C 1.4488129127523506 0.6003938598133406 -1.1880640418942057
C 0.18954643409586008 0.5874443682737586 -1.6568078387482195
C -0.9552075351399859 0.16521089411740475 -0.821997647635801
H 2.7153258046375623 0.2579283277141242 0.492679278374015
H 1.705841715075437 1.7654181968858473 0.5500638014239404
H 2.2871411613633676 0.5389265208282477 -1.8732905711443415
H 0.010702315774456806 0.8987783314244587 -2.6854486018642625
H -1.8352455610736007 0.8165883830067183 -1.0699543404027254
H -1.221200910604522 -0.884265944266154 -1.1031898448869881
16

C -1.3592214319458722 -1.4517763570575946 0.3034801482888086
C -1.2397924207309463 -0.005819523336193902 -0.12529950993506478
H -2.025333079482075 -1.5683766997403772 1.162523399183434
H -1.6718071420616984 -2.0331682641031517 -0.5863645685320699
H -0.8618832012748701 0.5714315473317862 0.7528161830099666
H -2.268508133294999 0.3733173499866619 -0.36491351442609293
C -0.3203719695894854 0.12904088911219347 -1.2949978343583508
C 0.474202786665304 -1.1089678690746652 -1.5579861140431857
C 0.8263071536382502 -1.9343290092463017 -0.5964973837616397
C 0.047250506806812434 -1.9545578057933874 0.656665066419611
H 0.4206996087507317 0.9349670101890836 -1.1090202271761826
H -0.9346921305523658 0.3181371196183082 -2.2092643080223544
H 0.775907521142211 -1.3394147427822627 -2.5911900500690948
H 1.667364193270218 -2.581024610011561 -0.7253723074746407
H 0.005846053603340472 -2.946356454629271 1.1415778803088465
H 0.49842506734622055 -1.1982137391350087 1.3352561260910858
16

C -0.7311464063780503 -2.876458676633451 -0.040108189073454426
C 0.061863551469645145 -1.7065974706861495 -0.6350264212211539
H -1.8078850550505958 -2.7325321848379 -0.21633911424967606
H -0.4354362990773859 -3.8282809395339426 -0.47854653984347506
H 1.0037696056566958 -1.6086943882489153 -0.05506651096103988
H 0.20836145241581552 -1.8232517123917436 -1.7140100645680563
C -0.7701811981627327 -0.46248413293718504 -0.3039301633734743
C -0.8571924014982479 -0.3903717680542497 1.16535349043266
C -0.5831897480282828 -1.432735568244463 1.9393600751340379
C -0.5096314774041887 -2.827952770486914 1.4565227123808855
H -1.7875443297547178 -0.6786511857666468 -0.7123206410618398
H -0.3912266462058588 0.4303985009124508 -0.7906559947307216
H -1.1533002229999418 0.5388951829441656 1.6356727448686617
H -0.3929938953964805 -1.2842752218174136 3.016669758022484
H 0.4921195677227726 -3.236140587125008 1.6692999705871976
H -1.2400786637540009 -3.493435470640249 1.9766143298950754
16

C -2.1267700537867955 -0.8444545873526328 0.7202785363400689
C -2.150193193788276 0.3020717766876557 -0.24877044341836552
H -2.718371480147489 -1.680402318299613 0.28950261036407987
H -2.6326569905021144 -0.5876731135185603 1.6872338179451172
H -3.0938367117542627 0.3580605714086164 -0.8175628314098935
H -2.0018409568700286 1.2451868921786773 0.3283827098815107
C -0.935134302805783 0.19074552608705792 -1.1769407057236874
C 0.2594014735856123 0.4043583291834407 -0.2992769352969143
C 0.24701552502321056 -0.19454254077790495 0.8889905815423617
C -0.7251126105186052 -1.3343848059747168 1.012678096194534
H -0.9406194685442107 -0.8794301232563546 -1.518626712257205
H -0.9991260540482254 0.9032369274177262 -1.997049430587696
H 1.106597972840679 1.0085415932010202 -0.585185258002616
H 0.8885387188606697 0.11374800152067921 1.7088164862861592
H -0.4724568542201365 -2.1111650662355803 0.24480313859109332
H -0.6782536086561718 -1.8181326203362844 1.9900117854309014
16

C 0.35019466213979394 -0.5071960954309961 -1.7288597340781562
C 0.373101218177857 -1.2441316464908625 -0.40686002306352304
H 1.3871991063896643 -0.4818914181272661 -2.1115976788911257
H -0.3504275818881465 -0.9775346881619543 -2.4452010932653363
H -0.6694427660084499 -1.5581303680718486 -0.1753974805306729
H 0.9742026124684027 -2.179680923054153 -0.46966467789795574
C 0.9431599094790093 -0.3798612966909601 0.689699061766783
C 1.684163382717555 0.8105980799274047 0.15546852162564098
C 1.033035157928574 1.5648942257879874 -0.7164293224683984
C -0.07301896473845491 0.9409413338758952 -1.459402208148146
H 0.06334911827536421 0.022918807576952898 1.2709376403628458
H 1.550412379671227 -0.9427266937609806 1.4185997559317114
H 2.7093796513781006 1.0401191212549676 0.47246130686669807
H 1.320373372570697 2.589233223506865 -0.8576900553752551
H -0.32127271658064765 1.4314647940213048 -2.407363642897867
H -0.9675514513443535 0.8711788999234755 -0.7968910280002099
16

C 0.26704022945123207 -1.0379247915565424 1.521761474444279
C 0.7934467344879562 0.2135815844310032 0.8267278691314652
H 0.5444106066300842 -1.0725607860721678 2.5862656351747377
H 0.6247951837718232 -1.9625252162009745 1.0351378095634642
H 0.0819692868538 0.4922121661694781 0.01653819855152473
H 1.7963745805118745 0.08868338129955958 0.42341635248784487
C 0.7276808124884336 1.3229461580855477 1.8858967614725783
C -0.6919427089677744 1.3241272225368652 2.369622437024646
C -1.586274967327233 0.4703700897692317 1.8840773716774348
C -1.2536638046489146 -0.9242289264348598 1.482296761550001
H 1.0364889190964548 2.2799161681391857 1.4636805499578511
H 1.4200142581222606 1.0332076330658997 2.7206812949395536
H -1.0031444231236413 2.025587310768441 3.124158941415286
H -2.6245570270016088 0.8181377132452184 1.7758069964385061
H -1.7494203458433173 -1.643500868233486 2.1371317878804845
H -1.6356402635466176 -1.133365473738971 0.4438515019849739
16

C -0.12817512348350804 1.5940448843005766 0.046235307420944186
C -1.3193833674832067 0.8315500516621305 -0.36186420889617155
H -0.4268119293471449 2.2771466533764486 0.8967237494088883
H 0.12894429182990302 2.3134807869247322 -0.7849747821743235
H -1.9222646859703563 1.4344615064473276 -1.105020579247185
H -2.0349350217539883 0.6903586663878378 0.49910026607714175
C -1.0671212322018422 -0.4955703351183376 -0.9894349303152837
C 0.002421813264130886 -1.2716638483555174 -0.31036711342762613
C 1.01823698920603 -0.6145781780177149 0.1963028035015756
C 1.0584821003956908 0.8345838900849728 0.4688193245695108
H -0.8840241583296328 -0.4473506138315861 -2.068109205400332
H -2.0097417380299567 -1.105495276276124 -0.863695059640641
H -0.041437896439201406 -2.345882120911887 -0.228474009307779
H 1.9124566918468244 -1.1874311841746905 0.4381509247943574
H 1.3087732706770525 0.953654068381582 1.55482808922729
H 1.9709177885495481 1.2321368356684865 -0.06496540801537046
