12                                                                                          

C                     0.46292000           0.26109000           0.15459000         
C                    -0.69556000          -0.38606000          -0.57737000
C                    -1.99269000          -0.04385000           0.09488000
O                     1.65007000           0.04034000          -0.60577000
O                     2.73945000           0.55468000           0.20896000
O                    -2.89168000          -0.85850000           0.27016000
H                     3.29180000          -0.24773000           0.16715000
H                     0.30772000           1.34127000           0.26040000
H                     0.57756000          -0.17160000           1.15534000
H                    -2.14136000           1.01918000           0.35338000
H                    -0.73882000          -0.03494000          -1.61353000
H                    -0.56921000          -1.47378000          -0.60350000
