77

Br                    1.44430513          -2.12356078          -2.04043564         
C                    -2.51330536           0.27522587           1.40233742         
C                    -4.35836575           1.70270805           0.64903302         
C                     3.10256290           2.03166755           1.59025243         
C                     0.69885949           1.68771641           1.24396872         
C                    -3.44554475           2.56215601           0.07846314         
C                     0.43648864           2.80101321           2.06778030         
C                    -1.58254138           1.15887791           0.76319614         
C                     2.81931390           3.10343579           2.43522713         
C                    -2.07230757          -0.86278385           2.12162713         
C                    -3.91799927           0.53883437           1.32888059         
C                     2.05562793           1.35125430           0.92875042         
C                    -2.04687999           2.31244557           0.11105452         
C                     1.48734348           3.49204479           2.66982348         
C                    -5.84315442          -2.86899448          -1.92107313         
C                    -3.14970047          -2.35061505          -1.20907996         
C                    -3.87739053          -1.52433242          -2.07748317         
C                    -2.97461518          -1.71743041           2.72408327         
C                    -4.82527570          -0.36615144           1.94003995         
C                    -1.83768673          -2.00170669          -0.86215674         
C                    -3.26388644          -0.37555705          -2.60152263         
C                    -1.24363507          -0.84061601          -1.33924455         
C                    -1.95830382          -0.04505973          -2.22668358         
C                    -0.09854155           2.91131187          -1.39710977         
C                    -1.15813761           3.29358807          -0.55790874         
C                    -4.36532783          -1.47574373           2.62359137         
C                     3.44494656          -0.25322967          -0.13723375         
C                     4.40136687           0.22968694          -1.04107831         
C                     1.29239338          -1.85379027           3.49830623         
C                     2.23999161          -1.29376874           2.63932505         
C                     0.80669232          -3.14401705           3.26585831         
C                     2.71633129          -2.01097613           1.53067247         
C                     3.71122810          -1.43848715           0.59023050         
C                     0.71643175           3.86338165          -2.00741561         
C                     5.60948577          -0.44067059          -1.23889018         
C                    -1.37771943           4.66870138          -0.35920258         
C                     1.29199820          -3.87057411           2.17465453         
C                     2.23639636          -3.30764240           1.32697806         
C                     4.91876514          -2.11491983           0.35806537         
C                     5.86827503          -1.62487741          -0.54109222         
C                     0.49249506           5.22785226          -1.79349849         
C                    -0.56188192           5.62574724          -0.96641611         
Cu                    0.49908862          -0.40232291          -0.58558427         
H                    -1.00342706          -1.05490278           2.18318904         
H                    -6.85583365          -2.84212872          -2.33723645         
H                    -5.42722031           1.90698705           0.57952863         
H                     4.13373838           1.73652489           1.39992014         
H                    -0.59459101           3.07341105           2.28631899         
H                    -3.80184478           3.44405048          -0.45375848         
H                     3.63789690           3.64475416           2.91164801         
H                    -5.36233892          -3.81616675          -2.20620855         
H                     0.10631840           1.85484029          -1.56184920         
H                    -3.58653418          -3.25671590          -0.79373877         
H                    -1.28683050          -2.66155188          -0.19086240         
H                    -3.82317752           0.26100477          -3.28737357         
H                     1.26913884           4.32004797           3.34530203         
H                    -2.61338184          -2.58893462           3.27149313         
H                     4.17143279           1.13619718          -1.60167189         
H                    -5.90188746          -2.80535212          -0.82446436         
H                    -5.89483065          -0.16477818           1.86564655         
H                    -1.52392912           0.86780612          -2.63486612         
H                     0.93087574          -1.27797459           4.35100287         
H                     2.61507388          -0.28988041           2.82970962         
H                    -5.07219947          -2.16207505           3.09126239         
H                     0.05859703          -3.57913333           3.92939682         
H                     1.53356097           3.53572196          -2.65149982         
H                    -2.18110657           4.99145541           0.30334903         
H                     6.34080156          -0.04612672          -1.94558695         
H                     0.92754122          -4.87893038           1.97702597         
H                     2.59362236          -3.86881256           0.46673243         
H                     5.11596218          -3.03777514           0.90553786         
H                     6.80340083          -2.16406821          -0.69489550         
H                     1.13443722           5.97271586          -2.26533087         
H                    -0.74645886           6.68522713          -0.78479700         
N                    -0.23533954           0.78495420           0.81185473         
N                     2.20229542           0.39683455          -0.02598726         
O                    -5.16019028          -1.75443082          -2.46654581         
